(PID.TID 0000.0001) 
(PID.TID 0000.0001) // ======================================================
(PID.TID 0000.0001) //                      MITgcm UV
(PID.TID 0000.0001) //                      =========
(PID.TID 0000.0001) // ======================================================
(PID.TID 0000.0001) // execution environment starting up...
(PID.TID 0000.0001) 
(PID.TID 0000.0001) // MITgcmUV version:  checkpoint67h
(PID.TID 0000.0001) // Build user:        asinha5
(PID.TID 0000.0001) // Build host:        r133i0n0
(PID.TID 0000.0001) // Build date:        Wed Mar 24 14:35:40 PDT 2021
(PID.TID 0000.0001) 
(PID.TID 0000.0001) // =======================================================
(PID.TID 0000.0001) // Execution Environment parameter file "eedata"
(PID.TID 0000.0001) // =======================================================
(PID.TID 0000.0001) ># Example "eedata" file
(PID.TID 0000.0001) ># Lines beginning "#" are comments
(PID.TID 0000.0001) ># nTx - No. threads per process in X
(PID.TID 0000.0001) ># nTy - No. threads per process in Y
(PID.TID 0000.0001) > &EEPARMS
(PID.TID 0000.0001) > nTx=1,
(PID.TID 0000.0001) > nTy=1,
(PID.TID 0000.0001) ># debugMode=.TRUE.,
(PID.TID 0000.0001) > /
(PID.TID 0000.0001) ># Note: Some systems use & as the
(PID.TID 0000.0001) ># namelist terminator. Other systems
(PID.TID 0000.0001) ># use a / character (as shown here).
(PID.TID 0000.0001) 
(PID.TID 0000.0001) // =======================================================
(PID.TID 0000.0001) // Computational Grid Specification ( see files "SIZE.h" )
(PID.TID 0000.0001) //                                  ( and "eedata"       )
(PID.TID 0000.0001) // =======================================================
(PID.TID 0000.0001)      nPx = 5385 ; /* No. processes in X */
(PID.TID 0000.0001)      nPy =    1 ; /* No. processes in Y */
(PID.TID 0000.0001)      nSx =    1 ; /* No. tiles in X per process */
(PID.TID 0000.0001)      nSy =    1 ; /* No. tiles in Y per process */
(PID.TID 0000.0001)      sNx =   20 ; /* Tile size in X */
(PID.TID 0000.0001)      sNy =   20 ; /* Tile size in Y */
(PID.TID 0000.0001)      OLx =    4 ; /* Tile overlap distance in X */
(PID.TID 0000.0001)      OLy =    4 ; /* Tile overlap distance in Y */
(PID.TID 0000.0001)      nTx =    1 ; /* No. threads in X per process */
(PID.TID 0000.0001)      nTy =    1 ; /* No. threads in Y per process */
(PID.TID 0000.0001)       Nr =  100 ; /* No. levels in the vertical   */
(PID.TID 0000.0001)       Nx =***** ; /* Total domain size in X ( = nPx*nSx*sNx ) */
(PID.TID 0000.0001)       Ny =   20 ; /* Total domain size in Y ( = nPy*nSy*sNy ) */
(PID.TID 0000.0001)   nTiles =    1 ; /* Total no. tiles per process ( = nSx*nSy ) */
(PID.TID 0000.0001)   nProcs = 5385 ; /* Total no. processes ( = nPx*nPy ) */
(PID.TID 0000.0001) nThreads =    1 ; /* Total no. threads per process ( = nTx*nTy ) */
(PID.TID 0000.0001) usingMPI =    T ; /* Flag used to control whether MPI is in use */
(PID.TID 0000.0001)                   /*  note: To execute a program with MPI calls */
(PID.TID 0000.0001)                   /*  it must be launched appropriately e.g     */
(PID.TID 0000.0001)                   /*  "mpirun -np 64 ......"                    */
(PID.TID 0000.0001) useCoupler=    F ;/* Flag used to control communications with   */
(PID.TID 0000.0001)                   /*  other model components, through a coupler */
(PID.TID 0000.0001) useNest2W_parent =    F ;/* Control 2-W Nesting comm */
(PID.TID 0000.0001) useNest2W_child  =    F ;/* Control 2-W Nesting comm */
(PID.TID 0000.0001) debugMode =    F ; /* print debug msg. (sequence of S/R calls)  */
(PID.TID 0000.0001) printMapIncludesZeros=    F ; /* print zeros in Std.Output maps */
(PID.TID 0000.0001) maxLengthPrt1D=   65 /* maxLength of 1D array printed to StdOut */
(PID.TID 0000.0001) 
(PID.TID 0000.0001) ======= Starting MPI parallel Run =========
(PID.TID 0000.0001)  My Processor Name (len:  8 ) = r133i0n0
(PID.TID 0000.0001)  Located at (  0,  0) on processor grid (0:***,0:  0)
(PID.TID 0000.0001)  Origin at  (     1,     1) on global grid (1:107700,1:    20)
(PID.TID 0000.0001)  North neighbor = processor 0000
(PID.TID 0000.0001)  South neighbor = processor 0000
(PID.TID 0000.0001)   East neighbor = processor 0001
(PID.TID 0000.0001)   West neighbor = processor 5384
(PID.TID 0000.0001) // ======================================================
(PID.TID 0000.0001) // Mapping of tiles to threads
(PID.TID 0000.0001) // ======================================================
(PID.TID 0000.0001) // -o- Thread   1, tiles (   1:   1,   1:   1)
(PID.TID 0000.0001) 
(PID.TID 0000.0001) W2_READPARMS: opening data.exch2
(PID.TID 0000.0001)  OPEN_COPY_DATA_FILE: opening file data.exch2
(PID.TID 0000.0001) // =======================================================
(PID.TID 0000.0001) // Parameter file "data.exch2"
(PID.TID 0000.0001) // =======================================================
(PID.TID 0000.0001) ># EXCH2 Package: Wrapper-2 User Choice
(PID.TID 0000.0001) >#--------------------
(PID.TID 0000.0001) >#  preDefTopol   :: pre-defined Topology selector:
(PID.TID 0000.0001) >#                :: = 0 : topology defined from processing "data.exch2";
(PID.TID 0000.0001) >#                :: = 1 : simple, single facet topology;
(PID.TID 0000.0001) >#                :: = 2 : customized topology (w2_set_myown_facets)
(PID.TID 0000.0001) >#                :: = 3 : 6-facet Cube (3 face-dims: nRed, nGreen, nBlue).
(PID.TID 0000.0001) >#  dimsFacets    :: facet pair of dimensions (n1x,n1y, n2x,n2y ...)
(PID.TID 0000.0001) >#  facetEdgeLink :: Face-Edge connectivity map:
(PID.TID 0000.0001) >#    facetEdgeLink(i,j)=XX.1 : face(j)-edge(i) (i=1,2,3,4 <==> N,S,E,W)
(PID.TID 0000.0001) >#    is connected to Northern edge of face "XX" ; similarly,
(PID.TID 0000.0001) >#    = XX.2 : to Southern.E, XX.3 = Eastern.E, XX.4 = Western.E of face "XX"
(PID.TID 0000.0001) >#  blankList     :: List of "blank" tiles
(PID.TID 0000.0001) >#  W2_mapIO      :: global map IO selector (-1 = old type ; 0 = 1 long line in X
(PID.TID 0000.0001) >#                :: 1 = compact, mostly in Y dir)
(PID.TID 0000.0001) >#  W2_printMsg   :: option for information messages printing
(PID.TID 0000.0001) >#                :: <0 : write to log file ; =0 : minimum print ;
(PID.TID 0000.0001) >#                :: =1 : no duplicated print ; =2 : all processes do print
(PID.TID 0000.0001) >#--------------------
(PID.TID 0000.0001) > &W2_EXCH2_PARM01
(PID.TID 0000.0001) >  W2_printMsg= 0,
(PID.TID 0000.0001) >  W2_mapIO   = 1,
(PID.TID 0000.0001) >#
(PID.TID 0000.0001) >#-- 5 facets llc_270 topology (drop facet 6 and its connection):
(PID.TID 0000.0001) >  preDefTopol = 1,
(PID.TID 0000.0001) >  dimsFacets = 2960, 800,
(PID.TID 0000.0001) >  blankList =
(PID.TID 0000.0001) >     1,
(PID.TID 0000.0001) >   149,
(PID.TID 0000.0001) >   297,
(PID.TID 0000.0001) >   445,
(PID.TID 0000.0001) >   593,
(PID.TID 0000.0001) >   741,
(PID.TID 0000.0001) >  1777,
(PID.TID 0000.0001) >  1925,
(PID.TID 0000.0001) >  2073,
(PID.TID 0000.0001) >  2221,
(PID.TID 0000.0001) >  2369,
(PID.TID 0000.0001) >  2517,
(PID.TID 0000.0001) >  2665,
(PID.TID 0000.0001) >  2813,
(PID.TID 0000.0001) >  2961,
(PID.TID 0000.0001) >  3109,
(PID.TID 0000.0001) >  3257,
(PID.TID 0000.0001) >  3405,
(PID.TID 0000.0001) >  3553,
(PID.TID 0000.0001) >  3701,
(PID.TID 0000.0001) >  3849,
(PID.TID 0000.0001) >  3997,
(PID.TID 0000.0001) >  4145,
(PID.TID 0000.0001) >  4293,
(PID.TID 0000.0001) >  4441,
(PID.TID 0000.0001) >  4589,
(PID.TID 0000.0001) >  4737,
(PID.TID 0000.0001) >  4885,
(PID.TID 0000.0001) >  5033,
(PID.TID 0000.0001) >  5181,
(PID.TID 0000.0001) >  5329,
(PID.TID 0000.0001) >  5477,
(PID.TID 0000.0001) >  5625,
(PID.TID 0000.0001) >  5773,
(PID.TID 0000.0001) >     2,
(PID.TID 0000.0001) >   150,
(PID.TID 0000.0001) >   298,
(PID.TID 0000.0001) >  1926,
(PID.TID 0000.0001) >  2074,
(PID.TID 0000.0001) >  2222,
(PID.TID 0000.0001) >  2370,
(PID.TID 0000.0001) >  2518,
(PID.TID 0000.0001) >  2666,
(PID.TID 0000.0001) >  2814,
(PID.TID 0000.0001) >  2962,
(PID.TID 0000.0001) >  3110,
(PID.TID 0000.0001) >  3258,
(PID.TID 0000.0001) >  3406,
(PID.TID 0000.0001) >  3554,
(PID.TID 0000.0001) >  3702,
(PID.TID 0000.0001) >  3850,
(PID.TID 0000.0001) >  3998,
(PID.TID 0000.0001) >  4146,
(PID.TID 0000.0001) >  4294,
(PID.TID 0000.0001) >  4442,
(PID.TID 0000.0001) >  4590,
(PID.TID 0000.0001) >  4738,
(PID.TID 0000.0001) >  4886,
(PID.TID 0000.0001) >  5034,
(PID.TID 0000.0001) >  5182,
(PID.TID 0000.0001) >  5330,
(PID.TID 0000.0001) >  5478,
(PID.TID 0000.0001) >  5626,
(PID.TID 0000.0001) >  5774,
(PID.TID 0000.0001) >  2075,
(PID.TID 0000.0001) >  2223,
(PID.TID 0000.0001) >  2371,
(PID.TID 0000.0001) >  2519,
(PID.TID 0000.0001) >  2667,
(PID.TID 0000.0001) >  2815,
(PID.TID 0000.0001) >  2963,
(PID.TID 0000.0001) >  3111,
(PID.TID 0000.0001) >  3259,
(PID.TID 0000.0001) >  3407,
(PID.TID 0000.0001) >  3555,
(PID.TID 0000.0001) >  3703,
(PID.TID 0000.0001) >  3851,
(PID.TID 0000.0001) >  3999,
(PID.TID 0000.0001) >  4147,
(PID.TID 0000.0001) >  4295,
(PID.TID 0000.0001) >  4443,
(PID.TID 0000.0001) >  4591,
(PID.TID 0000.0001) >  4739,
(PID.TID 0000.0001) >  4887,
(PID.TID 0000.0001) >  5035,
(PID.TID 0000.0001) >  5183,
(PID.TID 0000.0001) >  5331,
(PID.TID 0000.0001) >  5479,
(PID.TID 0000.0001) >  5627,
(PID.TID 0000.0001) >  5775,
(PID.TID 0000.0001) >  2224,
(PID.TID 0000.0001) >  2372,
(PID.TID 0000.0001) >  2520,
(PID.TID 0000.0001) >  2668,
(PID.TID 0000.0001) >  2816,
(PID.TID 0000.0001) >  2964,
(PID.TID 0000.0001) >  3112,
(PID.TID 0000.0001) >  3260,
(PID.TID 0000.0001) >  3408,
(PID.TID 0000.0001) >  3556,
(PID.TID 0000.0001) >  3704,
(PID.TID 0000.0001) >  3852,
(PID.TID 0000.0001) >  4000,
(PID.TID 0000.0001) >  4148,
(PID.TID 0000.0001) >  4296,
(PID.TID 0000.0001) >  4444,
(PID.TID 0000.0001) >  4592,
(PID.TID 0000.0001) >  4740,
(PID.TID 0000.0001) >  4888,
(PID.TID 0000.0001) >  5036,
(PID.TID 0000.0001) >  5184,
(PID.TID 0000.0001) >  5332,
(PID.TID 0000.0001) >  5480,
(PID.TID 0000.0001) >  5628,
(PID.TID 0000.0001) >  5776,
(PID.TID 0000.0001) >  2373,
(PID.TID 0000.0001) >  2521,
(PID.TID 0000.0001) >  2669,
(PID.TID 0000.0001) >  2817,
(PID.TID 0000.0001) >  2965,
(PID.TID 0000.0001) >  3113,
(PID.TID 0000.0001) >  3261,
(PID.TID 0000.0001) >  3409,
(PID.TID 0000.0001) >  3557,
(PID.TID 0000.0001) >  3705,
(PID.TID 0000.0001) >  3853,
(PID.TID 0000.0001) >  4001,
(PID.TID 0000.0001) >  4149,
(PID.TID 0000.0001) >  4297,
(PID.TID 0000.0001) >  4445,
(PID.TID 0000.0001) >  4593,
(PID.TID 0000.0001) >  4741,
(PID.TID 0000.0001) >  4889,
(PID.TID 0000.0001) >  5037,
(PID.TID 0000.0001) >  5185,
(PID.TID 0000.0001) >  5333,
(PID.TID 0000.0001) >  5481,
(PID.TID 0000.0001) >  5629,
(PID.TID 0000.0001) >  5777,
(PID.TID 0000.0001) >  2522,
(PID.TID 0000.0001) >  2670,
(PID.TID 0000.0001) >  2818,
(PID.TID 0000.0001) >  2966,
(PID.TID 0000.0001) >  3114,
(PID.TID 0000.0001) >  3262,
(PID.TID 0000.0001) >  3410,
(PID.TID 0000.0001) >  3558,
(PID.TID 0000.0001) >  3706,
(PID.TID 0000.0001) >  3854,
(PID.TID 0000.0001) >  4002,
(PID.TID 0000.0001) >  4150,
(PID.TID 0000.0001) >  4298,
(PID.TID 0000.0001) >  4446,
(PID.TID 0000.0001) >  4594,
(PID.TID 0000.0001) >  4742,
(PID.TID 0000.0001) >  4890,
(PID.TID 0000.0001) >  5038,
(PID.TID 0000.0001) >  5186,
(PID.TID 0000.0001) >  5334,
(PID.TID 0000.0001) >  5482,
(PID.TID 0000.0001) >  5630,
(PID.TID 0000.0001) >  5778,
(PID.TID 0000.0001) >  2523,
(PID.TID 0000.0001) >  2671,
(PID.TID 0000.0001) >  2819,
(PID.TID 0000.0001) >  2967,
(PID.TID 0000.0001) >  3115,
(PID.TID 0000.0001) >  3263,
(PID.TID 0000.0001) >  3411,
(PID.TID 0000.0001) >  3559,
(PID.TID 0000.0001) >  3707,
(PID.TID 0000.0001) >  3855,
(PID.TID 0000.0001) >  4003,
(PID.TID 0000.0001) >  4151,
(PID.TID 0000.0001) >  4299,
(PID.TID 0000.0001) >  4447,
(PID.TID 0000.0001) >  4595,
(PID.TID 0000.0001) >  4743,
(PID.TID 0000.0001) >  4891,
(PID.TID 0000.0001) >  5039,
(PID.TID 0000.0001) >  5187,
(PID.TID 0000.0001) >  5335,
(PID.TID 0000.0001) >  5483,
(PID.TID 0000.0001) >  5631,
(PID.TID 0000.0001) >  5779,
(PID.TID 0000.0001) >  2820,
(PID.TID 0000.0001) >  2968,
(PID.TID 0000.0001) >  3116,
(PID.TID 0000.0001) >  3264,
(PID.TID 0000.0001) >  3412,
(PID.TID 0000.0001) >  3560,
(PID.TID 0000.0001) >  3708,
(PID.TID 0000.0001) >  3856,
(PID.TID 0000.0001) >  4004,
(PID.TID 0000.0001) >  4152,
(PID.TID 0000.0001) >  4300,
(PID.TID 0000.0001) >  4448,
(PID.TID 0000.0001) >  4596,
(PID.TID 0000.0001) >  4744,
(PID.TID 0000.0001) >  4892,
(PID.TID 0000.0001) >  5040,
(PID.TID 0000.0001) >  5188,
(PID.TID 0000.0001) >  5336,
(PID.TID 0000.0001) >  5484,
(PID.TID 0000.0001) >  5632,
(PID.TID 0000.0001) >  5780,
(PID.TID 0000.0001) >  2821,
(PID.TID 0000.0001) >  2969,
(PID.TID 0000.0001) >  3117,
(PID.TID 0000.0001) >  3265,
(PID.TID 0000.0001) >  3413,
(PID.TID 0000.0001) >  3561,
(PID.TID 0000.0001) >  3709,
(PID.TID 0000.0001) >  3857,
(PID.TID 0000.0001) >  4005,
(PID.TID 0000.0001) >  4153,
(PID.TID 0000.0001) >  4301,
(PID.TID 0000.0001) >  4449,
(PID.TID 0000.0001) >  4597,
(PID.TID 0000.0001) >  4745,
(PID.TID 0000.0001) >  4893,
(PID.TID 0000.0001) >  5041,
(PID.TID 0000.0001) >  5189,
(PID.TID 0000.0001) >  5337,
(PID.TID 0000.0001) >  5485,
(PID.TID 0000.0001) >  5633,
(PID.TID 0000.0001) >  5781,
(PID.TID 0000.0001) >  2822,
(PID.TID 0000.0001) >  2970,
(PID.TID 0000.0001) >  3118,
(PID.TID 0000.0001) >  3266,
(PID.TID 0000.0001) >  3414,
(PID.TID 0000.0001) >  3710,
(PID.TID 0000.0001) >  4302,
(PID.TID 0000.0001) >  4450,
(PID.TID 0000.0001) >  4598,
(PID.TID 0000.0001) >  4746,
(PID.TID 0000.0001) >  4894,
(PID.TID 0000.0001) >  5042,
(PID.TID 0000.0001) >  5190,
(PID.TID 0000.0001) >  5338,
(PID.TID 0000.0001) >  5486,
(PID.TID 0000.0001) >  5634,
(PID.TID 0000.0001) >  5782,
(PID.TID 0000.0001) >  2971,
(PID.TID 0000.0001) >  3119,
(PID.TID 0000.0001) >  3267,
(PID.TID 0000.0001) >  3415,
(PID.TID 0000.0001) >  4451,
(PID.TID 0000.0001) >  4599,
(PID.TID 0000.0001) >  4747,
(PID.TID 0000.0001) >  4895,
(PID.TID 0000.0001) >  5043,
(PID.TID 0000.0001) >  5191,
(PID.TID 0000.0001) >  5339,
(PID.TID 0000.0001) >  5487,
(PID.TID 0000.0001) >  5635,
(PID.TID 0000.0001) >  5783,
(PID.TID 0000.0001) >  4008,
(PID.TID 0000.0001) >  4156,
(PID.TID 0000.0001) >  4304,
(PID.TID 0000.0001) >  4452,
(PID.TID 0000.0001) >  4600,
(PID.TID 0000.0001) >  4748,
(PID.TID 0000.0001) >  4896,
(PID.TID 0000.0001) >  5044,
(PID.TID 0000.0001) >  5192,
(PID.TID 0000.0001) >  5340,
(PID.TID 0000.0001) >  5488,
(PID.TID 0000.0001) >  5636,
(PID.TID 0000.0001) >  5784,
(PID.TID 0000.0001) >  4453,
(PID.TID 0000.0001) >  4601,
(PID.TID 0000.0001) >  4749,
(PID.TID 0000.0001) >  4897,
(PID.TID 0000.0001) >  5045,
(PID.TID 0000.0001) >  5193,
(PID.TID 0000.0001) >  5341,
(PID.TID 0000.0001) >  5489,
(PID.TID 0000.0001) >  5637,
(PID.TID 0000.0001) >  5785,
(PID.TID 0000.0001) >  4454,
(PID.TID 0000.0001) >  4602,
(PID.TID 0000.0001) >  4750,
(PID.TID 0000.0001) >  4898,
(PID.TID 0000.0001) >  5046,
(PID.TID 0000.0001) >  5194,
(PID.TID 0000.0001) >  5342,
(PID.TID 0000.0001) >  5490,
(PID.TID 0000.0001) >  5638,
(PID.TID 0000.0001) >  5786,
(PID.TID 0000.0001) >  5047,
(PID.TID 0000.0001) >  5195,
(PID.TID 0000.0001) >  5343,
(PID.TID 0000.0001) >  5491,
(PID.TID 0000.0001) >  5639,
(PID.TID 0000.0001) >  5787,
(PID.TID 0000.0001) >  5196,
(PID.TID 0000.0001) >  5344,
(PID.TID 0000.0001) >  5492,
(PID.TID 0000.0001) >  5640,
(PID.TID 0000.0001) >  5788,
(PID.TID 0000.0001) >  5197,
(PID.TID 0000.0001) >  5345,
(PID.TID 0000.0001) >  5493,
(PID.TID 0000.0001) >  5641,
(PID.TID 0000.0001) >  5789,
(PID.TID 0000.0001) >  5198,
(PID.TID 0000.0001) >  5346,
(PID.TID 0000.0001) >  5494,
(PID.TID 0000.0001) >  5642,
(PID.TID 0000.0001) >  5790,
(PID.TID 0000.0001) >  5199,
(PID.TID 0000.0001) >  5347,
(PID.TID 0000.0001) >  5495,
(PID.TID 0000.0001) >  5643,
(PID.TID 0000.0001) >  5791,
(PID.TID 0000.0001) >  5348,
(PID.TID 0000.0001) >  5496,
(PID.TID 0000.0001) >  5644,
(PID.TID 0000.0001) >  5792,
(PID.TID 0000.0001) >  5349,
(PID.TID 0000.0001) >  5645,
(PID.TID 0000.0001) >  5793,
(PID.TID 0000.0001) >   135,
(PID.TID 0000.0001) >   283,
(PID.TID 0000.0001) >   136,
(PID.TID 0000.0001) >   284,
(PID.TID 0000.0001) >   137,
(PID.TID 0000.0001) >   285,
(PID.TID 0000.0001) >   433,
(PID.TID 0000.0001) >   138,
(PID.TID 0000.0001) >   286,
(PID.TID 0000.0001) >   434,
(PID.TID 0000.0001) >   139,
(PID.TID 0000.0001) >   287,
(PID.TID 0000.0001) >   435,
(PID.TID 0000.0001) >   583,
(PID.TID 0000.0001) >   140,
(PID.TID 0000.0001) >   288,
(PID.TID 0000.0001) >   436,
(PID.TID 0000.0001) >   584,
(PID.TID 0000.0001) >   732,
(PID.TID 0000.0001) >   141,
(PID.TID 0000.0001) >   289,
(PID.TID 0000.0001) >   437,
(PID.TID 0000.0001) >   585,
(PID.TID 0000.0001) >   733,
(PID.TID 0000.0001) >   881,
(PID.TID 0000.0001) >   142,
(PID.TID 0000.0001) >   290,
(PID.TID 0000.0001) >   438,
(PID.TID 0000.0001) >   586,
(PID.TID 0000.0001) >   734,
(PID.TID 0000.0001) >   882,
(PID.TID 0000.0001) >  1030,
(PID.TID 0000.0001) >  1178,
(PID.TID 0000.0001) >  1326,
(PID.TID 0000.0001) >  1474,
(PID.TID 0000.0001) >  1622,
(PID.TID 0000.0001) >  1770,
(PID.TID 0000.0001) >   143,
(PID.TID 0000.0001) >   291,
(PID.TID 0000.0001) >   439,
(PID.TID 0000.0001) >   587,
(PID.TID 0000.0001) >   735,
(PID.TID 0000.0001) >   883,
(PID.TID 0000.0001) >  1031,
(PID.TID 0000.0001) >  1179,
(PID.TID 0000.0001) >  1327,
(PID.TID 0000.0001) >  1475,
(PID.TID 0000.0001) >  1623,
(PID.TID 0000.0001) >  1771,
(PID.TID 0000.0001) >  1919,
(PID.TID 0000.0001) >  2067,
(PID.TID 0000.0001) >  4287,
(PID.TID 0000.0001) >  4435,
(PID.TID 0000.0001) >  4583,
(PID.TID 0000.0001) >  5767,
(PID.TID 0000.0001) >   144,
(PID.TID 0000.0001) >   292,
(PID.TID 0000.0001) >   440,
(PID.TID 0000.0001) >   588,
(PID.TID 0000.0001) >   736,
(PID.TID 0000.0001) >   884,
(PID.TID 0000.0001) >  1032,
(PID.TID 0000.0001) >  1180,
(PID.TID 0000.0001) >  1328,
(PID.TID 0000.0001) >  1476,
(PID.TID 0000.0001) >  1624,
(PID.TID 0000.0001) >  1772,
(PID.TID 0000.0001) >  1920,
(PID.TID 0000.0001) >  2068,
(PID.TID 0000.0001) >  2216,
(PID.TID 0000.0001) >  3844,
(PID.TID 0000.0001) >  3992,
(PID.TID 0000.0001) >  4140,
(PID.TID 0000.0001) >  4288,
(PID.TID 0000.0001) >  4436,
(PID.TID 0000.0001) >  4584,
(PID.TID 0000.0001) >  4732,
(PID.TID 0000.0001) >  4880,
(PID.TID 0000.0001) >  5028,
(PID.TID 0000.0001) >  5176,
(PID.TID 0000.0001) >  5324,
(PID.TID 0000.0001) >  5472,
(PID.TID 0000.0001) >  5620,
(PID.TID 0000.0001) >  5768,
(PID.TID 0000.0001) >   145,
(PID.TID 0000.0001) >   293,
(PID.TID 0000.0001) >   441,
(PID.TID 0000.0001) >   589,
(PID.TID 0000.0001) >   737,
(PID.TID 0000.0001) >   885,
(PID.TID 0000.0001) >  1033,
(PID.TID 0000.0001) >  1181,
(PID.TID 0000.0001) >  1329,
(PID.TID 0000.0001) >  1477,
(PID.TID 0000.0001) >  1625,
(PID.TID 0000.0001) >  1773,
(PID.TID 0000.0001) >  1921,
(PID.TID 0000.0001) >  2069,
(PID.TID 0000.0001) >  2217,
(PID.TID 0000.0001) >  3845,
(PID.TID 0000.0001) >  3993,
(PID.TID 0000.0001) >  4141,
(PID.TID 0000.0001) >  4289,
(PID.TID 0000.0001) >  4437,
(PID.TID 0000.0001) >  4585,
(PID.TID 0000.0001) >  4733,
(PID.TID 0000.0001) >  4881,
(PID.TID 0000.0001) >  5029,
(PID.TID 0000.0001) >  5177,
(PID.TID 0000.0001) >  5325,
(PID.TID 0000.0001) >  5473,
(PID.TID 0000.0001) >  5621,
(PID.TID 0000.0001) >  5769,
(PID.TID 0000.0001) >  5917,
(PID.TID 0000.0001) >   146,
(PID.TID 0000.0001) >   294,
(PID.TID 0000.0001) >   442,
(PID.TID 0000.0001) >   590,
(PID.TID 0000.0001) >   738,
(PID.TID 0000.0001) >   886,
(PID.TID 0000.0001) >  1034,
(PID.TID 0000.0001) >  1182,
(PID.TID 0000.0001) >  1330,
(PID.TID 0000.0001) >  1478,
(PID.TID 0000.0001) >  1626,
(PID.TID 0000.0001) >  1774,
(PID.TID 0000.0001) >  1922,
(PID.TID 0000.0001) >  2070,
(PID.TID 0000.0001) >  2218,
(PID.TID 0000.0001) >  2366,
(PID.TID 0000.0001) >  3846,
(PID.TID 0000.0001) >  3994,
(PID.TID 0000.0001) >  4142,
(PID.TID 0000.0001) >  4290,
(PID.TID 0000.0001) >  4438,
(PID.TID 0000.0001) >  4586,
(PID.TID 0000.0001) >  4734,
(PID.TID 0000.0001) >  4882,
(PID.TID 0000.0001) >  5030,
(PID.TID 0000.0001) >  5178,
(PID.TID 0000.0001) >  5326,
(PID.TID 0000.0001) >  5474,
(PID.TID 0000.0001) >  5622,
(PID.TID 0000.0001) >  5770,
(PID.TID 0000.0001) >  5918,
(PID.TID 0000.0001) >   147,
(PID.TID 0000.0001) >   295,
(PID.TID 0000.0001) >   443,
(PID.TID 0000.0001) >   591,
(PID.TID 0000.0001) >   739,
(PID.TID 0000.0001) >   887,
(PID.TID 0000.0001) >  1035,
(PID.TID 0000.0001) >  1183,
(PID.TID 0000.0001) >  1331,
(PID.TID 0000.0001) >  1479,
(PID.TID 0000.0001) >  1627,
(PID.TID 0000.0001) >  1775,
(PID.TID 0000.0001) >  1923,
(PID.TID 0000.0001) >  2071,
(PID.TID 0000.0001) >  2219,
(PID.TID 0000.0001) >  2367,
(PID.TID 0000.0001) >  2515,
(PID.TID 0000.0001) >  3847,
(PID.TID 0000.0001) >  3995,
(PID.TID 0000.0001) >  4143,
(PID.TID 0000.0001) >  4291,
(PID.TID 0000.0001) >  4439,
(PID.TID 0000.0001) >  4587,
(PID.TID 0000.0001) >  4735,
(PID.TID 0000.0001) >  4883,
(PID.TID 0000.0001) >  5031,
(PID.TID 0000.0001) >  5179,
(PID.TID 0000.0001) >  5327,
(PID.TID 0000.0001) >  5475,
(PID.TID 0000.0001) >  5623,
(PID.TID 0000.0001) >  5771,
(PID.TID 0000.0001) >  5919,
(PID.TID 0000.0001) >   148,
(PID.TID 0000.0001) >   296,
(PID.TID 0000.0001) >   444,
(PID.TID 0000.0001) >   592,
(PID.TID 0000.0001) >   740,
(PID.TID 0000.0001) >   888,
(PID.TID 0000.0001) >  1036,
(PID.TID 0000.0001) >  1184,
(PID.TID 0000.0001) >  1332,
(PID.TID 0000.0001) >  1480,
(PID.TID 0000.0001) >  1628,
(PID.TID 0000.0001) >  1776,
(PID.TID 0000.0001) >  1924,
(PID.TID 0000.0001) >  2072,
(PID.TID 0000.0001) >  2220,
(PID.TID 0000.0001) >  2368,
(PID.TID 0000.0001) >  2516,
(PID.TID 0000.0001) >  2664,
(PID.TID 0000.0001) >  3700,
(PID.TID 0000.0001) >  3848,
(PID.TID 0000.0001) >  3996,
(PID.TID 0000.0001) >  4144,
(PID.TID 0000.0001) >  4292,
(PID.TID 0000.0001) >  4440,
(PID.TID 0000.0001) >  4588,
(PID.TID 0000.0001) >  4736,
(PID.TID 0000.0001) >  4884,
(PID.TID 0000.0001) >  5032,
(PID.TID 0000.0001) >  5180,
(PID.TID 0000.0001) >  5328,
(PID.TID 0000.0001) >  5476,
(PID.TID 0000.0001) >  5624,
(PID.TID 0000.0001) >  5772,
(PID.TID 0000.0001) >  5920,
(PID.TID 0000.0001) > &
(PID.TID 0000.0001) 
(PID.TID 0000.0001) W2_READPARMS: finished reading data.exch2
(PID.TID 0000.0001) W2_useE2ioLayOut=    T ;/* T: use Exch2 glob IO map; F: use model default */
(PID.TID 0000.0001) W2_mapIO        =   1 ; /* select option for Exch2 global-IO map */
(PID.TID 0000.0001) W2_printMsg     =   0 ; /* select option for printing information */
(PID.TID 0000.0001) ===== Start setting W2 TOPOLOGY:
(PID.TID 0000.0001) W2_E2SETUP: number of Active Tiles =    5385
(PID.TID 0000.0001) W2_E2SETUP: number of Blank Tiles  =     535
(PID.TID 0000.0001) W2_E2SETUP: Total number of Tiles  =    5920
(PID.TID 0000.0001) W2_SET_SINGLE_FACET: preDefTopol=  1 selected
(PID.TID 0000.0001) W2_E2SETUP: Total number of Facets =       1
(PID.TID 0000.0001) W2_SET_F2F_INDEX: index matrix for connected Facet-Edges:
(PID.TID 0000.0001) W2_SET_MAP_TILES: tile mapping within facet and global Map:
(PID.TID 0000.0001)  W2_mapIO = 2960 (=  148*sNx)
(PID.TID 0000.0001)  Global Map (IO): X-size=    2960 , Y-size=     800
(PID.TID 0000.0001) W2_SET_MAP_TILES: tile offset within facet and global Map:
- facet  1 : X-size=  2960 , Y-size=   800 ; 5920 tiles (Tx,Ty= 148,  40)
(PID.TID 0000.0001) W2_SET_MAP_CUMSUM: setting Facet Matrix for CUMUL-SUM
 Facet Matrix for CUMUL-SUM (nFacets=   1, nActive=   1 ):
- facet  1 :  0  0 ,
(PID.TID 0000.0001) W2_SET_MAP_CUMSUM: done (skip Tile Matrix setting)
(PID.TID 0000.0001) W2_SET_TILE2TILES: tile neighbours and index connection:
(PID.TID 0000.0001) current Max.Nb.Neighbours (e.g., on tile   22 ) =  4
(PID.TID 0000.0001) ===== W2 TILE TOPOLOGY =====
(PID.TID 0000.0001)  TILE:     3 (bi,bj=   1   1 ), Nb of Neighbours =  2
(PID.TID 0000.0001)     NEIGHBOUR  1 = TILE  151 (n=  2) Comm = MSG (PROC=  133)
(PID.TID 0000.0001)     NEIGHBOUR  2 = TILE    4 (n=  3) Comm = MSG (PROC=    2)
(PID.TID 0000.0001) =====       setting W2 TOPOLOGY: Done
(PID.TID 0000.0001) 
(PID.TID 0000.0001)  INI_PARMS: opening model parameter file "data"
(PID.TID 0000.0001)  OPEN_COPY_DATA_FILE: opening file data
(PID.TID 0000.0001) // =======================================================
(PID.TID 0000.0001) // Parameter file "data"
(PID.TID 0000.0001) // =======================================================
(PID.TID 0000.0001) >### Data file with primary model parameters -----------------------------------
(PID.TID 0000.0001) >#
(PID.TID 0000.0001) >### Continuous equation parameters --------------------------------------------
(PID.TID 0000.0001) > &PARM01
(PID.TID 0000.0001) >## Reference temperatures and salinities for every vertical level.
(PID.TID 0000.0001) > tRef =  18.89, 18.89, 18.89, 18.89, 18.89, 18.87, 18.85, 18.82,
(PID.TID 0000.0001) >         18.80, 18.73, 18.63, 18.49, 18.28, 18.08, 17.86, 17.63,
(PID.TID 0000.0001) >         17.40, 17.18, 16.95, 16.73, 16.52, 16.31, 16.10, 15.89,
(PID.TID 0000.0001) >         15.69, 15.49, 15.28, 15.08, 14.88, 14.67, 14.47, 14.25,
(PID.TID 0000.0001) >         14.03, 13.80, 13.55, 13.29, 13.01, 12.73, 12.42, 12.11,
(PID.TID 0000.0001) >         11.78, 11.43, 11.07, 10.70, 10.31,  9.93,  9.53,  9.11,
(PID.TID 0000.0001) >          8.71,  8.29,  7.89,  7.51,  7.13,  6.78,  6.44,  6.11,
(PID.TID 0000.0001) >          5.81,  5.51,  5.23,  4.97,  4.73,  4.51,  4.30,  4.11,
(PID.TID 0000.0001) >          3.94,  3.78,  3.63,  3.50,  3.38,  3.25,  3.14,  3.04,
(PID.TID 0000.0001) >          2.94,  2.83,  2.74,  2.64,  2.54,  2.45,  2.36,  2.27,
(PID.TID 0000.0001) >          2.19,  2.10,  2.03,  1.95,  1.86,  1.78,  1.70,  1.63,
(PID.TID 0000.0001) >          1.55,  1.48,  1.41,  1.34,  1.27,  1.20,  1.13,  1.06,
(PID.TID 0000.0001) >          1.00,  0.96,  0.93,  0.91,
(PID.TID 0000.0001) > sRef =  34.84, 34.84, 34.84, 34.84, 34.84, 34.84, 34.85, 34.85,
(PID.TID 0000.0001) >         34.85, 34.86, 34.87, 34.88, 34.90, 34.91, 34.93, 34.95,
(PID.TID 0000.0001) >         34.96, 34.98, 34.99, 35.00, 35.01, 35.02, 35.03, 35.04,
(PID.TID 0000.0001) >         35.05, 35.06, 35.07, 35.07, 35.07, 35.07, 35.07, 35.07,
(PID.TID 0000.0001) >         35.07, 35.06, 35.05, 35.04, 35.03, 35.02, 35.01, 34.99,
(PID.TID 0000.0001) >         34.97, 34.95, 34.92, 34.90, 34.87, 34.84, 34.81, 34.78,
(PID.TID 0000.0001) >         34.75, 34.72, 34.69, 34.67, 34.65, 34.62, 34.61, 34.60,
(PID.TID 0000.0001) >         34.59, 34.59, 34.58, 34.59, 34.59, 34.60, 34.60, 34.61,
(PID.TID 0000.0001) >         34.62, 34.63, 34.64, 34.65, 34.66, 34.67, 34.67, 34.68,
(PID.TID 0000.0001) >         34.69, 34.70, 34.71, 34.71, 34.72, 34.72, 34.73, 34.73,
(PID.TID 0000.0001) >         34.73, 34.74, 34.74, 34.74, 34.74, 34.75, 34.74, 34.74,
(PID.TID 0000.0001) >         34.74, 34.74, 34.74, 34.74, 34.74, 34.74, 34.73, 34.73,
(PID.TID 0000.0001) >         34.73, 34.73, 34.73, 34.73,
(PID.TID 0000.0001) > rhonil        = 1029.,
(PID.TID 0000.0001) > rhoConstFresh = 1000.,
(PID.TID 0000.0001) > eosType = 'JMD95Z',
(PID.TID 0000.0001) >#
(PID.TID 0000.0001) >## Various prescriptions for viscosity and diffusivity.
(PID.TID 0000.0001) > viscAr     = 5.e-04,
(PID.TID 0000.0001) > viscA4Grid = 0.0,
(PID.TID 0000.0001) > diffKhT    = 0.E0,
(PID.TID 0000.0001) > diffKhS    = 0.E0,
(PID.TID 0000.0001) > diffK4T    = 0.E10,
(PID.TID 0000.0001) > diffK4S    = 0.E10,
(PID.TID 0000.0001) > diffKrT    = 1.0e-5,
(PID.TID 0000.0001) > diffKrS    = 1.0e-5,
(PID.TID 0000.0001) > bottomDragQuadratic = 0.002,
(PID.TID 0000.0001) > no_slip_sides     = .TRUE.,
(PID.TID 0000.0001) > no_slip_bottom    = .TRUE.,
(PID.TID 0000.0001) > implicitDiffusion = .TRUE.,
(PID.TID 0000.0001) > implicitViscosity = .TRUE.,
(PID.TID 0000.0001) ># horizontal momentum closure
(PID.TID 0000.0001) > viscC4Leith   = 2.0,
(PID.TID 0000.0001) > viscC4Leithd  = 2.0,
(PID.TID 0000.0001) > viscA4GridMax = 0.8,
(PID.TID 0000.0001) >#
(PID.TID 0000.0001) >## Parameters that control numerical methods like advection schemes and
(PID.TID 0000.0001) >#  treatment of the free-surface.
(PID.TID 0000.0001) > tempAdvScheme = 7,
(PID.TID 0000.0001) > saltAdvScheme = 7,
(PID.TID 0000.0001) > implicitFreeSurface     = .TRUE.,
(PID.TID 0000.0001) > staggerTimeStep         = .TRUE.,
(PID.TID 0000.0001) > exactConserv            = .TRUE.,
(PID.TID 0000.0001) > vectorInvariantMomentum = .TRUE.,
(PID.TID 0000.0001) > useAreaViscLength       = .TRUE.,
(PID.TID 0000.0001) > highOrderVorticity      = .TRUE.,
(PID.TID 0000.0001) > multiDimAdvection       = .TRUE.,
(PID.TID 0000.0001) >#
(PID.TID 0000.0001) >## These parameters seem to be associated with the external forcing.
(PID.TID 0000.0001) > convertFW2Salt = -1.,
(PID.TID 0000.0001) > temp_EvPrRn    =  0.,
(PID.TID 0000.0001) > useRealFreshWaterFlux = .FALSE.,
(PID.TID 0000.0001) > allowFreezing         = .FALSE.,
(PID.TID 0000.0001) >#
(PID.TID 0000.0001) >## Parameters associated with bathymetry specification.
(PID.TID 0000.0001) > hFacMin   = 0.2,
(PID.TID 0000.0001) > hFacMinDr = 5.,
(PID.TID 0000.0001) >#
(PID.TID 0000.0001) >## Parameters for reading, writing, and misc numerical details.
(PID.TID 0000.0001) > globalFiles     = .TRUE.,
(PID.TID 0000.0001) > useSingleCpuIO  = .TRUE.,
(PID.TID 0000.0001) > readBinaryPrec  = 32,
(PID.TID 0000.0001) > writeBinaryPrec = 32,
(PID.TID 0000.0001) > debuglevel      = 1,
(PID.TID 0000.0001) >#
(PID.TID 0000.0001) >## Unused parameters.
(PID.TID 0000.0001) ># gravity = 9.81,
(PID.TID 0000.0001) ># viscA4Grid = 2.0E-3,
(PID.TID 0000.0001) ># viscAhGrid = 2.5E-4,
(PID.TID 0000.0001) ># bottomDraglinear    = 1.E-3,
(PID.TID 0000.0001) ># Note: nonlinFreeSurf=1 with rStar=0 breaks the code.
(PID.TID 0000.0001) ># nonlinFreeSurf = 4,
(PID.TID 0000.0001) ># select_rStar   = 1,
(PID.TID 0000.0001) ># hFacInf   = 0.1,
(PID.TID 0000.0001) ># hFacSup   = 5.,
(PID.TID 0000.0001) ># implicSurfPress = 0.6,
(PID.TID 0000.0001) ># implicDiv2DFlow = 0.6,
(PID.TID 0000.0001) ># useSingleCpuInput = .TRUE.,
(PID.TID 0000.0001) ># set to eccov4, make sure minbathy=20m first
(PID.TID 0000.0001) ># debuglevel = -1,
(PID.TID 0000.0001) ># useJamartWetPoints = .TRUE.,
(PID.TID 0000.0001) ># writeBinaryPrec=64,
(PID.TID 0000.0001) > /
(PID.TID 0000.0001) >### Elliptic solver parameters ------------------------------------------------
(PID.TID 0000.0001) > &PARM02
(PID.TID 0000.0001) > cg2dMaxIters       = 1000,
(PID.TID 0000.0001) ># cg2dTargetResidual = 1.E-8,
(PID.TID 0000.0001) > cg2dTargetResWunit = 1e-18,
(PID.TID 0000.0001) >#
(PID.TID 0000.0001) >#cg2dMaxIters       = 100,
(PID.TID 0000.0001) >#cg2dTargetResidual = 1.E-5,
(PID.TID 0000.0001) > &
(PID.TID 0000.0001) >### Time stepping parameters --------------------------------------------------
(PID.TID 0000.0001) > &PARM03
(PID.TID 0000.0001) > deltaT      =   80.,
(PID.TID 0000.0001) > nIter0      =0015811200,
(PID.TID 0000.0001) > nTimeSteps  =  2160,
(PID.TID 0000.0001) > pChkptFreq  = 864000.,
(PID.TID 0000.0001) > monitorFreq =   3600.,
(PID.TID 0000.0001) > abEps       = 0.1,
(PID.TID 0000.0001) >## It is unclear what these specify.
(PID.TID 0000.0001) > pickupStrictlyMatch = .FALSE.,
(PID.TID 0000.0001) > forcing_In_AB       = .FALSE.,
(PID.TID 0000.0001) > momDissip_In_AB     = .FALSE.,
(PID.TID 0000.0001) > dumpInitAndLast     = .FALSE.,
(PID.TID 0000.0001) > /
(PID.TID 0000.0001) >### Gridding parameters -------------------------------------------------------
(PID.TID 0000.0001) > &PARM04
(PID.TID 0000.0001) > usingSphericalPolarGrid=.TRUE.,
(PID.TID 0000.0001) >## Specify the height of each vertical level.
(PID.TID 0000.0001) > delR =   5.00,   5.00,   5.00,   5.00,   5.00,   5.00,   5.00,   5.00,   5.00,
(PID.TID 0000.0001) >          5.00,   5.00,   5.00,   5.00,   5.00,   5.00,   5.01,   5.01,   5.02,
(PID.TID 0000.0001) >          5.04,   5.07,   5.12,   5.20,   5.31,   5.49,   5.72,   6.04,   6.45,
(PID.TID 0000.0001) >          6.97,   7.62,   8.42,   9.36,  10.46,  11.72,  13.13,  14.70,  16.40,
(PID.TID 0000.0001) >         18.24,  20.18,  22.21,  24.29,  26.43,  28.57,  30.71,  32.79,  34.82,
(PID.TID 0000.0001) >         36.76,  38.60,  40.30,  41.87,  43.28,  44.54,  45.64,  46.58,  47.38,
(PID.TID 0000.0001) >         48.03,  48.55,  48.96,  49.29,  49.53,  49.72,  49.90,  50.11,  50.41,
(PID.TID 0000.0001) >         50.92,  51.69,  52.87,  54.54,  56.79,  59.67,  63.16,  67.26,  71.83,
(PID.TID 0000.0001) >         76.83,  82.11,  87.61,  93.22,  98.91, 104.64, 110.38, 116.12, 121.87,
(PID.TID 0000.0001) >        127.63, 133.38, 139.12, 144.87, 150.63, 156.38, 162.12, 167.87, 173.63,
(PID.TID 0000.0001) >        179.38, 185.12, 190.87, 196.63, 202.38, 208.12, 213.87, 219.63, 225.38,
(PID.TID 0000.0001) >        231.12,
(PID.TID 0000.0001) > xgOrigin=-81.583335876464844,
(PID.TID 0000.0001) > dxSpacing= 0.025568608540374,
(PID.TID 0000.0001) > ygOrigin= 26.855293273925781,
(PID.TID 0000.0001) > dySpacing= 0.020833333333333,
(PID.TID 0000.0001) > /
(PID.TID 0000.0001) ># -----------------------------------------------------------------------------
(PID.TID 0000.0001) >### Bathymetry files and initial condition files
(PID.TID 0000.0001) > &PARM05
(PID.TID 0000.0001) > bathyFile       = 'bathy_2km_new.bin',
(PID.TID 0000.0001) > hydrogThetaFile = 't0_2960x800x100.bin',
(PID.TID 0000.0001) > hydrogSaltFile  = 's0_2960x800x100.bin',
(PID.TID 0000.0001) > uVelInitFile    = 'u0_2960x800x100.bin',
(PID.TID 0000.0001) > vVelInitFile    = 'v0_2960x800x100.bin',
(PID.TID 0000.0001) > /
(PID.TID 0000.0001) 
(PID.TID 0000.0001)  INI_PARMS ; starts to read PARM01
(PID.TID 0000.0001)  INI_PARMS ; read PARM01 : OK
(PID.TID 0000.0001)  INI_PARMS ; starts to read PARM02
(PID.TID 0000.0001)  INI_PARMS ; read PARM02 : OK
(PID.TID 0000.0001)  INI_PARMS ; starts to read PARM03
(PID.TID 0000.0001)  INI_PARMS ; read PARM03 : OK
(PID.TID 0000.0001)  INI_PARMS ; starts to read PARM04
(PID.TID 0000.0001)  INI_PARMS ; read PARM04 : OK
(PID.TID 0000.0001)  INI_PARMS ; starts to read PARM05
(PID.TID 0000.0001)  INI_PARMS ; read PARM05 : OK
(PID.TID 0000.0001)  INI_PARMS: finished reading file "data"
(PID.TID 0000.0001)  PACKAGES_BOOT: opening data.pkg
(PID.TID 0000.0001)  OPEN_COPY_DATA_FILE: opening file data.pkg
(PID.TID 0000.0001) // =======================================================
(PID.TID 0000.0001) // Parameter file "data.pkg"
(PID.TID 0000.0001) // =======================================================
(PID.TID 0000.0001) ># Packages
(PID.TID 0000.0001) > &PACKAGES
(PID.TID 0000.0001) > useCAL         = .TRUE.,
(PID.TID 0000.0001) > useEXF         = .TRUE.,
(PID.TID 0000.0001) > useKPP         = .TRUE.,
(PID.TID 0000.0001) > usePTRACERS    =.TRUE.,
(PID.TID 0000.0001) > useDiagnostics = .TRUE.,
(PID.TID 0000.0001) > useOBCS        = .TRUE.,
(PID.TID 0000.0001) ># useProfiles=.TRUE.,
(PID.TID 0000.0001) > /
(PID.TID 0000.0001) 
(PID.TID 0000.0001)  PACKAGES_BOOT: finished reading data.pkg
(PID.TID 0000.0001)  PACKAGES_BOOT: On/Off package Summary
 --------  pkgs with a standard "usePKG" On/Off switch in "data.pkg":  --------
 pkg/obcs                 compiled   and   used ( useOBCS                  = T )
 pkg/kpp                  compiled   and   used ( useKPP                   = T )
 pkg/cal                  compiled   and   used ( useCAL                   = T )
 pkg/exf                  compiled   and   used ( useEXF                   = T )
 pkg/ptracers             compiled   and   used ( usePTRACERS              = T )
 pkg/rbcs                 compiled but not used ( useRBCS                  = F )
 pkg/diagnostics          compiled   and   used ( useDiagnostics           = T )
 -------- pkgs without standard "usePKG" On/Off switch in "data.pkg":  --------
 pkg/generic_advdiff      compiled   and   used ( useGAD                   = T )
 pkg/mom_common           compiled   and   used ( momStepping              = T )
 pkg/mom_vecinv           compiled   and   used ( +vectorInvariantMomentum = T )
 pkg/monitor              compiled   and   used ( monitorFreq > 0.         = T )
 pkg/debug                compiled but not used ( debugMode                = F )
 pkg/exch2                compiled   and   used
 pkg/rw                   compiled   and   used
 pkg/mdsio                compiled   and   used
(PID.TID 0000.0001)  PACKAGES_BOOT: End of package Summary
(PID.TID 0000.0001) 
(PID.TID 0000.0001) CAL_READPARMS: opening data.cal
(PID.TID 0000.0001)  OPEN_COPY_DATA_FILE: opening file data.cal
(PID.TID 0000.0001) // =======================================================
(PID.TID 0000.0001) // Parameter file "data.cal"
(PID.TID 0000.0001) // =======================================================
(PID.TID 0000.0001) >#
(PID.TID 0000.0001) ># *******************
(PID.TID 0000.0001) ># Calendar Parameters
(PID.TID 0000.0001) ># *******************
(PID.TID 0000.0001) > &CAL_NML
(PID.TID 0000.0001) > TheCalendar='gregorian',
(PID.TID 0000.0001) > startDate_1=20080101,
(PID.TID 0000.0001) > startDate_2=000000,
(PID.TID 0000.0001) > calendarDumps = .TRUE.,
(PID.TID 0000.0001) > &
(PID.TID 0000.0001) 
(PID.TID 0000.0001) CAL_READPARMS: finished reading data.cal
(PID.TID 0000.0001) EXF_READPARMS: opening data.exf
(PID.TID 0000.0001)  OPEN_COPY_DATA_FILE: opening file data.exf
(PID.TID 0000.0001) // =======================================================
(PID.TID 0000.0001) // Parameter file "data.exf"
(PID.TID 0000.0001) // =======================================================
(PID.TID 0000.0001) ># *********************
(PID.TID 0000.0001) ># External Forcing Data
(PID.TID 0000.0001) ># *********************
(PID.TID 0000.0001) >#
(PID.TID 0000.0001) > &EXF_NML_01
(PID.TID 0000.0001) >#
(PID.TID 0000.0001) > useAtmWind        = .TRUE.,
(PID.TID 0000.0001) >#
(PID.TID 0000.0001) >#TO COMBINE WITH ALLOW_ZENITH_ANGLE:
(PID.TID 0000.0001) > exf_albedo        = 0.1,
(PID.TID 0000.0001) > useExfZenIncoming = .TRUE.,
(PID.TID 0000.0001) > select_ZenAlbedo  = 1,
(PID.TID 0000.0001) >#
(PID.TID 0000.0001) > ocean_emissivity  = 0.97,
(PID.TID 0000.0001) > ice_emissivity    = 0.95,
(PID.TID 0000.0001) > snow_emissivity   = 0.95,
(PID.TID 0000.0001) > exf_iprec         = 32,
(PID.TID 0000.0001) > exf_iprec_obcs    = 32,
(PID.TID 0000.0001) > exf_yftype        = 'RL',
(PID.TID 0000.0001) > useExfYearlyFields= .TRUE.,
(PID.TID 0000.0001) > useExfCheckRange  = .FALSE.,
(PID.TID 0000.0001) > useRelativeWind   = .TRUE.,
(PID.TID 0000.0001) > &
(PID.TID 0000.0001) >#
(PID.TID 0000.0001) > &EXF_NML_02
(PID.TID 0000.0001) > apressurefile     = 'era5_08_09/ERA5_pres',
(PID.TID 0000.0001) > atempfile         = 'era5_08_09/ERA5_tmp2m_degC',
(PID.TID 0000.0001) > aqhfile           = 'era5_08_09/ERA5_spfh2m',
(PID.TID 0000.0001) > precipfile        = 'era5_08_09/ERA5_rain',
(PID.TID 0000.0001) > uwindfile         = 'era5_08_09/ERA5_u10m',
(PID.TID 0000.0001) > vwindfile         = 'era5_08_09/ERA5_v10m',
(PID.TID 0000.0001) > swdownfile        = 'era5_08_09/ERA5_dsw',
(PID.TID 0000.0001) > lwdownfile        = 'era5_08_09/ERA5_dlw',
(PID.TID 0000.0001) > tidePotfile       = 'tide_IAU_EARTH',
(PID.TID 0000.0001) > runofffile        = 'runoff1p2472-360x180x12.bin',
(PID.TID 0000.0001) >#
(PID.TID 0000.0001) > apressurestartdate1 = 19920101,
(PID.TID 0000.0001) > apressurestartdate2 = 000000,
(PID.TID 0000.0001) > apressureperiod   = 3600.0,
(PID.TID 0000.0001) >#
(PID.TID 0000.0001) > atempstartdate1   = 19920101,
(PID.TID 0000.0001) > atempstartdate2   = 000000,
(PID.TID 0000.0001) > atempperiod       = 3600.0,
(PID.TID 0000.0001) >#
(PID.TID 0000.0001) > aqhstartdate1     = 19920101,
(PID.TID 0000.0001) > aqhstartdate2     = 000000,
(PID.TID 0000.0001) > aqhperiod         = 3600.0,
(PID.TID 0000.0001) >#
(PID.TID 0000.0001) > precipstartdate1  = 19920101,
(PID.TID 0000.0001) > precipstartdate2  = 003000,
(PID.TID 0000.0001) > precipperiod      = 3600.0,
(PID.TID 0000.0001) >#
(PID.TID 0000.0001) > uwindstartdate1   = 19920101,
(PID.TID 0000.0001) > uwindstartdate2   = 000000,
(PID.TID 0000.0001) > uwindperiod       = 3600.0,
(PID.TID 0000.0001) >#
(PID.TID 0000.0001) > vwindstartdate1   = 19920101,
(PID.TID 0000.0001) > vwindstartdate2   = 000000,
(PID.TID 0000.0001) > vwindperiod       = 3600.0,
(PID.TID 0000.0001) >#
(PID.TID 0000.0001) > swdownstartdate1  = 19920101,
(PID.TID 0000.0001) > swdownstartdate2  = 003000,
(PID.TID 0000.0001) > swdownperiod      = 3600.0,
(PID.TID 0000.0001) >#
(PID.TID 0000.0001) > lwdownstartdate1  = 19920101,
(PID.TID 0000.0001) > lwdownstartdate2  = 003000,
(PID.TID 0000.0001) > lwdownperiod      = 3600.0,
(PID.TID 0000.0001) > tidePotstartdate1  = 19790101,
(PID.TID 0000.0001) > tidePotstartdate2  = 000000,
(PID.TID 0000.0001) > tidePotperiod      = 3600.0,
(PID.TID 0000.0001) ># "*period=-12" specifies monthly-mean forcing
(PID.TID 0000.0001) > runoffperiod      = -12,
(PID.TID 0000.0001) > &
(PID.TID 0000.0001) >#
(PID.TID 0000.0001) > &EXF_NML_03
(PID.TID 0000.0001) > exf_offset_atemp   = 273.15,
(PID.TID 0000.0001) > exf_inscal_swdown  = -1.0,
(PID.TID 0000.0001) > exf_inscal_lwdown  = -1.0,
(PID.TID 0000.0001) ># 1/365/24/3600 yr/s conversion, runoff [m/yr --> m/s]
(PID.TID 0000.0001) > exf_inscal_runoff = 3.1710e-08,
(PID.TID 0000.0001) > &
(PID.TID 0000.0001) >#
(PID.TID 0000.0001) > &EXF_NML_04
(PID.TID 0000.0001) ># runoff_interpMethod = 0,
(PID.TID 0000.0001) >#
(PID.TID 0000.0001) > apressure_lon0    =   0.0000000D0,
(PID.TID 0000.0001) > apressure_lon_inc =   0.2812500D0,
(PID.TID 0000.0001) > apressure_lat0    = -89.7848850D0,
(PID.TID 0000.0001) > apressure_lat_inc = 0.2786766D0,0.2803199D0,0.2806917D0,0.2808328D0,0.2809011D0,0.2809392D0,0.2809626D0,0.2809781D0,
(PID.TID 0000.0001) >                     0.2809888D0,0.2809965D0,0.2810023D0,0.2810067D0,0.2810102D0,0.2810129D0,0.2810151D0,
(PID.TID 0000.0001) >                     33*0.2810258D0,543*0.2810302D0,33*0.2810258D0,
(PID.TID 0000.0001) >                     0.2810151D0,0.2810129D0,0.2810102D0,0.2810067D0,0.2810023D0,0.2809965D0,0.2809888D0,0.2809781D0,
(PID.TID 0000.0001) >                     0.2809626D0,0.2809392D0,0.2809011D0,0.2808328D0,0.2806917D0,0.2803199D0,0.2786766D0,
(PID.TID 0000.0001) > apressure_nlon    = 1280,
(PID.TID 0000.0001) > apressure_nlat    = 640,
(PID.TID 0000.0001) >#
(PID.TID 0000.0001) > atemp_lon0        =   0.0000000D0,
(PID.TID 0000.0001) > atemp_lon_inc     =   0.2812500D0,
(PID.TID 0000.0001) > atemp_lat0        = -89.7848850D0,
(PID.TID 0000.0001) > atemp_lat_inc     = 0.2786766D0,0.2803199D0,0.2806917D0,0.2808328D0,0.2809011D0,0.2809392D0,0.2809626D0,0.2809781D0,
(PID.TID 0000.0001) >                     0.2809888D0,0.2809965D0,0.2810023D0,0.2810067D0,0.2810102D0,0.2810129D0,0.2810151D0,
(PID.TID 0000.0001) >                     33*0.2810258D0,543*0.2810302D0,33*0.2810258D0,
(PID.TID 0000.0001) >                     0.2810151D0,0.2810129D0,0.2810102D0,0.2810067D0,0.2810023D0,0.2809965D0,0.2809888D0,0.2809781D0,
(PID.TID 0000.0001) >                     0.2809626D0,0.2809392D0,0.2809011D0,0.2808328D0,0.2806917D0,0.2803199D0,0.2786766D0,
(PID.TID 0000.0001) > atemp_nlon        = 1280,
(PID.TID 0000.0001) > atemp_nlat        = 640,
(PID.TID 0000.0001) >#
(PID.TID 0000.0001) > aqh_lon0        =   0.0000000D0,
(PID.TID 0000.0001) > aqh_lon_inc     =   0.2812500D0,
(PID.TID 0000.0001) > aqh_lat0        = -89.7848850D0,
(PID.TID 0000.0001) > aqh_lat_inc     = 0.2786766D0,0.2803199D0,0.2806917D0,0.2808328D0,0.2809011D0,0.2809392D0,0.2809626D0,0.2809781D0,
(PID.TID 0000.0001) >                     0.2809888D0,0.2809965D0,0.2810023D0,0.2810067D0,0.2810102D0,0.2810129D0,0.2810151D0,
(PID.TID 0000.0001) >                     33*0.2810258D0,543*0.2810302D0,33*0.2810258D0,
(PID.TID 0000.0001) >                     0.2810151D0,0.2810129D0,0.2810102D0,0.2810067D0,0.2810023D0,0.2809965D0,0.2809888D0,0.2809781D0,
(PID.TID 0000.0001) >                     0.2809626D0,0.2809392D0,0.2809011D0,0.2808328D0,0.2806917D0,0.2803199D0,0.2786766D0,
(PID.TID 0000.0001) > aqh_nlon        = 1280,
(PID.TID 0000.0001) > aqh_nlat        = 640,
(PID.TID 0000.0001) >#
(PID.TID 0000.0001) > precip_lon0        =   0.0000000D0,
(PID.TID 0000.0001) > precip_lon_inc     =   0.2812500D0,
(PID.TID 0000.0001) > precip_lat0        = -89.7848850D0,
(PID.TID 0000.0001) > precip_lat_inc     = 0.2786766D0,0.2803199D0,0.2806917D0,0.2808328D0,0.2809011D0,0.2809392D0,0.2809626D0,0.2809781D0,
(PID.TID 0000.0001) >                     0.2809888D0,0.2809965D0,0.2810023D0,0.2810067D0,0.2810102D0,0.2810129D0,0.2810151D0,
(PID.TID 0000.0001) >                     33*0.2810258D0,543*0.2810302D0,33*0.2810258D0,
(PID.TID 0000.0001) >                     0.2810151D0,0.2810129D0,0.2810102D0,0.2810067D0,0.2810023D0,0.2809965D0,0.2809888D0,0.2809781D0,
(PID.TID 0000.0001) >                     0.2809626D0,0.2809392D0,0.2809011D0,0.2808328D0,0.2806917D0,0.2803199D0,0.2786766D0,
(PID.TID 0000.0001) > precip_nlon        = 1280,
(PID.TID 0000.0001) > precip_nlat        = 640,
(PID.TID 0000.0001) >#
(PID.TID 0000.0001) > uwind_lon0        =   0.0000000D0,
(PID.TID 0000.0001) > uwind_lon_inc     =   0.2812500D0,
(PID.TID 0000.0001) > uwind_lat0        = -89.7848850D0,
(PID.TID 0000.0001) > uwind_lat_inc     = 0.2786766D0,0.2803199D0,0.2806917D0,0.2808328D0,0.2809011D0,0.2809392D0,0.2809626D0,0.2809781D0,
(PID.TID 0000.0001) >                     0.2809888D0,0.2809965D0,0.2810023D0,0.2810067D0,0.2810102D0,0.2810129D0,0.2810151D0,
(PID.TID 0000.0001) >                     33*0.2810258D0,543*0.2810302D0,33*0.2810258D0,
(PID.TID 0000.0001) >                     0.2810151D0,0.2810129D0,0.2810102D0,0.2810067D0,0.2810023D0,0.2809965D0,0.2809888D0,0.2809781D0,
(PID.TID 0000.0001) >                     0.2809626D0,0.2809392D0,0.2809011D0,0.2808328D0,0.2806917D0,0.2803199D0,0.2786766D0,
(PID.TID 0000.0001) > uwind_nlon        = 1280,
(PID.TID 0000.0001) > uwind_nlat        = 640,
(PID.TID 0000.0001) >#
(PID.TID 0000.0001) > vwind_lon0        =   0.0000000D0,
(PID.TID 0000.0001) > vwind_lon_inc     =   0.2812500D0,
(PID.TID 0000.0001) > vwind_lat0        = -89.7848850D0,
(PID.TID 0000.0001) > vwind_lat_inc     = 0.2786766D0,0.2803199D0,0.2806917D0,0.2808328D0,0.2809011D0,0.2809392D0,0.2809626D0,0.2809781D0,
(PID.TID 0000.0001) >                     0.2809888D0,0.2809965D0,0.2810023D0,0.2810067D0,0.2810102D0,0.2810129D0,0.2810151D0,
(PID.TID 0000.0001) >                     33*0.2810258D0,543*0.2810302D0,33*0.2810258D0,
(PID.TID 0000.0001) >                     0.2810151D0,0.2810129D0,0.2810102D0,0.2810067D0,0.2810023D0,0.2809965D0,0.2809888D0,0.2809781D0,
(PID.TID 0000.0001) >                     0.2809626D0,0.2809392D0,0.2809011D0,0.2808328D0,0.2806917D0,0.2803199D0,0.2786766D0,
(PID.TID 0000.0001) > vwind_nlon        = 1280,
(PID.TID 0000.0001) > vwind_nlat        = 640,
(PID.TID 0000.0001) >#
(PID.TID 0000.0001) > swdown_lon0        =   0.0000000D0,
(PID.TID 0000.0001) > swdown_lon_inc     =   0.2812500D0,
(PID.TID 0000.0001) > swdown_lat0        = -89.7848850D0,
(PID.TID 0000.0001) > swdown_lat_inc     = 0.2786766D0,0.2803199D0,0.2806917D0,0.2808328D0,0.2809011D0,0.2809392D0,0.2809626D0,0.2809781D0,
(PID.TID 0000.0001) >                     0.2809888D0,0.2809965D0,0.2810023D0,0.2810067D0,0.2810102D0,0.2810129D0,0.2810151D0,
(PID.TID 0000.0001) >                     33*0.2810258D0,543*0.2810302D0,33*0.2810258D0,
(PID.TID 0000.0001) >                     0.2810151D0,0.2810129D0,0.2810102D0,0.2810067D0,0.2810023D0,0.2809965D0,0.2809888D0,0.2809781D0,
(PID.TID 0000.0001) >                     0.2809626D0,0.2809392D0,0.2809011D0,0.2808328D0,0.2806917D0,0.2803199D0,0.2786766D0,
(PID.TID 0000.0001) > swdown_nlon        = 1280,
(PID.TID 0000.0001) > swdown_nlat        = 640,
(PID.TID 0000.0001) >#
(PID.TID 0000.0001) > lwdown_lon0        =   0.0000000D0,
(PID.TID 0000.0001) > lwdown_lon_inc     =   0.2812500D0,
(PID.TID 0000.0001) > lwdown_lat0        = -89.7848850D0,
(PID.TID 0000.0001) > lwdown_lat_inc     = 0.2786766D0,0.2803199D0,0.2806917D0,0.2808328D0,0.2809011D0,0.2809392D0,0.2809626D0,0.2809781D0,
(PID.TID 0000.0001) >                     0.2809888D0,0.2809965D0,0.2810023D0,0.2810067D0,0.2810102D0,0.2810129D0,0.2810151D0,
(PID.TID 0000.0001) >                     33*0.2810258D0,543*0.2810302D0,33*0.2810258D0,
(PID.TID 0000.0001) >                     0.2810151D0,0.2810129D0,0.2810102D0,0.2810067D0,0.2810023D0,0.2809965D0,0.2809888D0,0.2809781D0,
(PID.TID 0000.0001) >                     0.2809626D0,0.2809392D0,0.2809011D0,0.2808328D0,0.2806917D0,0.2803199D0,0.2786766D0,
(PID.TID 0000.0001) > lwdown_nlon        = 1280,
(PID.TID 0000.0001) > lwdown_nlat        = 640,
(PID.TID 0000.0001) >#
(PID.TID 0000.0001) > tidePot_lon0       = 0.0D0,
(PID.TID 0000.0001) > tidePot_lon_inc    = 1.0D0,
(PID.TID 0000.0001) > tidePot_lat0       = -90.0D0,
(PID.TID 0000.0001) > tidePot_lat_inc    = 180*1.0D0,
(PID.TID 0000.0001) > tidePot_nlon       = 360,
(PID.TID 0000.0001) > tidePot_nlat       = 181,
(PID.TID 0000.0001) >#
(PID.TID 0000.0001) > runoff_lon0       = 0.50D0,
(PID.TID 0000.0001) > runoff_lon_inc    = 1.0D0,
(PID.TID 0000.0001) > runoff_lat0       = -89.5D0,
(PID.TID 0000.0001) > runoff_lat_inc    = 179*1.,
(PID.TID 0000.0001) > runoff_nlon       = 360,
(PID.TID 0000.0001) > runoff_nlat       = 180,
(PID.TID 0000.0001) > &
(PID.TID 0000.0001) >#
(PID.TID 0000.0001) > &EXF_NML_OBCS
(PID.TID 0000.0001) > useOBCSYearlyFields=.TRUE.,
(PID.TID 0000.0001) > &
(PID.TID 0000.0001) 
(PID.TID 0000.0001) EXF_READPARMS: reading EXF_NML_01
(PID.TID 0000.0001) EXF_READPARMS: reading EXF_NML_02
(PID.TID 0000.0001) EXF_READPARMS: reading EXF_NML_03
(PID.TID 0000.0001) EXF_READPARMS: reading EXF_NML_04
(PID.TID 0000.0001) EXF_READPARMS: reading EXF_NML_OBCS
(PID.TID 0000.0001) EXF_READPARMS: finished reading data.exf
(PID.TID 0000.0001)  OBCS_READPARMS: opening data.obcs
(PID.TID 0000.0001)  OPEN_COPY_DATA_FILE: opening file data.obcs
(PID.TID 0000.0001) // =======================================================
(PID.TID 0000.0001) // Parameter file "data.obcs"
(PID.TID 0000.0001) // =======================================================
(PID.TID 0000.0001) ># ***************
(PID.TID 0000.0001) ># Open boundaries
(PID.TID 0000.0001) ># ***************
(PID.TID 0000.0001) > &OBCS_PARM01
(PID.TID 0000.0001) > OB_Jnorth = 2960*-1,
(PID.TID 0000.0001) > OB_Jsouth = 2960*1,
(PID.TID 0000.0001) > OB_Ieast = 800*-1,
(PID.TID 0000.0001) >#
(PID.TID 0000.0001) > useOBCSprescribe=.TRUE.,
(PID.TID 0000.0001) ># useOBCSsponge=.true.,
(PID.TID 0000.0001) > OBCS_monSelect = 3,
(PID.TID 0000.0001) ># >0: use 1rst O. upwind adv-scheme @ OB (=1: only if outflow)
(PID.TID 0000.0001) > OBCS_u1_adv_T = 1,
(PID.TID 0000.0001) > OBCS_u1_adv_S = 1,
(PID.TID 0000.0001) >#
(PID.TID 0000.0001) > OBSsFile='OBSs_2960x100x12.bin',
(PID.TID 0000.0001) > OBStFile='OBSt_2960x100x12.bin',
(PID.TID 0000.0001) > OBSuFile='OBSu_2960x100x12.bin',
(PID.TID 0000.0001) > OBSvFile='OBSv_2960x100x12.bin',
(PID.TID 0000.0001) >#
(PID.TID 0000.0001) > OBNsFile='OBNs_2960x100x12.bin',
(PID.TID 0000.0001) > OBNtFile='OBNt_2960x100x12.bin',
(PID.TID 0000.0001) > OBNuFile='OBNu_2960x100x12.bin',
(PID.TID 0000.0001) > OBNvFile='OBNv_2960x100x12.bin',
(PID.TID 0000.0001) >#
(PID.TID 0000.0001) > OBEsFile='OBEs_800x100x12.bin',
(PID.TID 0000.0001) > OBEtFile='OBEt_800x100x12.bin',
(PID.TID 0000.0001) > OBEuFile='OBEu_800x100x12.bin',
(PID.TID 0000.0001) > OBEvFile='OBEv_800x100x12.bin',
(PID.TID 0000.0001) >#
(PID.TID 0000.0001) ># Balancing
(PID.TID 0000.0001) > useOBCSbalance = .TRUE.,
(PID.TID 0000.0001) > OBCS_balanceFacN = -1,
(PID.TID 0000.0001) > OBCS_balanceFacS = -1,
(PID.TID 0000.0001) > OBCS_balanceFacE = -1,
(PID.TID 0000.0001) >## *****************************************
(PID.TID 0000.0001) >## Tidal BC parameters
(PID.TID 0000.0001) >## *****************************************
(PID.TID 0000.0001) > useOBCStides = .TRUE.,
(PID.TID 0000.0001) >##components   = M2       S2     N2       K2       K1      O1       P1       Q1       Mf         Mm
(PID.TID 0000.0001) >##periods (hr) = 12.4206  12     12.6583  11.9672  23.9345 25.8193  24.0659  26.8684  327.8599   661.31
(PID.TID 0000.0001) >##period(sec)  = 44714.165 43200.001 45570.054 43082.05 86164.077 92949.636 86637.2 96726.086 1180295.5 2380715.9
(PID.TID 0000.0001) >##components      m2        s2        n2        k2        k1        o1        p1        q1        mf        mm        m4        ms4       mn4
(PID.TID 0000.0001) >##period (hr): 12.420601 12.000000 12.658348 11.967236 23.934466 25.819343 24.065889 26.868357 327.859874 661.309962 6.210303 6.103339 6.269178
(PID.TID 0000.0001) >##period (s):  44714.165192 43200.001287 45570.053512 43082.050319 86164.077005 92949.635701 86637.199772 96726.085703 1180295.545550 2380715.863587 22357.090551 21972.021930 22569.042448
(PID.TID 0000.0001) > tidalPeriod  = 44714.165 43200.001 45570.054 43082.050 86164.077 92949.636 86637.200 96726.086 1180295.546 2380715.864 22357.091 21972.022 22569.042,
(PID.TID 0000.0001) > OBSamFile='OBSvam_2960x13.bin',
(PID.TID 0000.0001) > OBNamFile='OBNvam_2960x13.bin',
(PID.TID 0000.0001) > OBEamFile='OBEuam_800x13.bin',
(PID.TID 0000.0001) > OBSphFile='OBSvph_2960x13.bin',
(PID.TID 0000.0001) > OBNphFile='OBNvph_2960x13.bin',
(PID.TID 0000.0001) > OBEphFile='OBEuph_800x13.bin',
(PID.TID 0000.0001) > &
(PID.TID 0000.0001) ># *****************************************
(PID.TID 0000.0001) ># Sponge Layer Parameters.
(PID.TID 0000.0001) ># *****************************************
(PID.TID 0000.0001) > &OBCS_PARM03
(PID.TID 0000.0001) ># Urelaxobcsinner=2629800.E0,
(PID.TID 0000.0001) ># Urelaxobcsbound=43200.E0,
(PID.TID 0000.0001) >#
(PID.TID 0000.0001) ># Vrelaxobcsinner=2629800.E0,
(PID.TID 0000.0001) ># Vrelaxobcsbound=43200.E0,
(PID.TID 0000.0001) >#
(PID.TID 0000.0001) ># spongeThickness=16,
(PID.TID 0000.0001) > &
(PID.TID 0000.0001) 
(PID.TID 0000.0001)  OBCS_READPARMS: finished reading data.obcs
(PID.TID 0000.0001)  OB_indexUnset = /* unset OB index value (i.e. no OB) */
(PID.TID 0000.0001)                       0
(PID.TID 0000.0001)     ;
(PID.TID 0000.0001)  Northern OB global indices : OB_Jnorth =
(PID.TID 0000.0001)  2960 @      800                            /* I =  1:*** */
(PID.TID 0000.0001)  Southern OB global indices : OB_Jsouth =
(PID.TID 0000.0001)  2960 @        1                            /* I =  1:*** */
(PID.TID 0000.0001)  Eastern  OB global indices : OB_Ieast =
(PID.TID 0000.0001)   800 @     2960                            /* J =  1:800 */
(PID.TID 0000.0001)  Western  OB global indices : OB_Iwest =
(PID.TID 0000.0001)   800 @        0                            /* J =  1:800 */
(PID.TID 0000.0001) 
(PID.TID 0000.0001)  KPP_READPARMS: opening data.kpp
(PID.TID 0000.0001)  OPEN_COPY_DATA_FILE: opening file data.kpp
(PID.TID 0000.0001) // =======================================================
(PID.TID 0000.0001) // Parameter file "data.kpp"
(PID.TID 0000.0001) // =======================================================
(PID.TID 0000.0001) ># KPP parameters
(PID.TID 0000.0001) > &KPP_PARM01
(PID.TID 0000.0001) >### KPPmixingMaps   = .FALSE.,
(PID.TID 0000.0001) >### KPPwriteState   = .FALSE.,
(PID.TID 0000.0001) >### kpp_dumpFreq    = 0.,
(PID.TID 0000.0001) >### kpp_tavefreq    = 0.,
(PID.TID 0000.0001) >### Ricr            = 0.3559,
(PID.TID 0000.0001) >### Riinfty         = 0.6998,
(PID.TID 0000.0001) > &
(PID.TID 0000.0001) 
(PID.TID 0000.0001)  KPP_READPARMS ; starts to read KPP_PARM01
(PID.TID 0000.0001)  KPP_READPARMS ; read KPP_PARM01 : OK
(PID.TID 0000.0001)  KPP_READPARMS: finished reading data.kpp
(PID.TID 0000.0001)  PTRACERS_READPARMS: opening data.ptracers
(PID.TID 0000.0001)  OPEN_COPY_DATA_FILE: opening file data.ptracers
(PID.TID 0000.0001) // =======================================================
(PID.TID 0000.0001) // Parameter file "data.ptracers"
(PID.TID 0000.0001) // =======================================================
(PID.TID 0000.0001) >&PTRACERS_PARM01
(PID.TID 0000.0001) >  PTRACERS_Iter0=15811200,
(PID.TID 0000.0001) >  PTRACERS_numInUse=2,
(PID.TID 0000.0001) >  PTRACERS_advScheme(1)=7,
(PID.TID 0000.0001) >  PTRACERS_advScheme(2)=7,
(PID.TID 0000.0001) >  PTRACERS_names(1)='TRAC01',
(PID.TID 0000.0001) >  PTRACERS_names(2)='TRAC02',
(PID.TID 0000.0001) >  PTRACERS_ix = 500, 1000, 1500, 2000, 2500,
(PID.TID 0000.0001) >                500, 1000, 1500, 2000, 2500,
(PID.TID 0000.0001) >  PTRACERS_jx = 200, 200, 400, 400, 400,
(PID.TID 0000.0001) >                200, 200, 400, 400, 400,
(PID.TID 0000.0001) >  PTRACERS_ptx = 5*1, 5*2
(PID.TID 0000.0001) >  PTRACERS_tsx = 5*15811245, 5*15811290
(PID.TID 0000.0001) >&
(PID.TID 0000.0001) 
(PID.TID 0000.0001)  PTRACERS_READPARMS: finished reading data.ptracers
(PID.TID 0000.0001)  DIAGNOSTICS_READPARMS: opening data.diagnostics
(PID.TID 0000.0001)  OPEN_COPY_DATA_FILE: opening file data.diagnostics
(PID.TID 0000.0001) // =======================================================
(PID.TID 0000.0001) // Parameter file "data.diagnostics"
(PID.TID 0000.0001) // =======================================================
(PID.TID 0000.0001) ># Diagnostic Package Choices
(PID.TID 0000.0001) >#-----------------
(PID.TID 0000.0001) ># for each output-stream:
(PID.TID 0000.0001) >#  filename(n) : prefix of the output file name (only 8.c long) for outp.stream n
(PID.TID 0000.0001) >#  frequency(n):< 0 : write snap-shot output every multiple of |frequency| (iter)
(PID.TID 0000.0001) >#               > 0 : write time-average output every multiple of frequency (iter)
(PID.TID 0000.0001) >#  levels(:,n) : list of levels to write to file (Notes: declared as REAL)
(PID.TID 0000.0001) >#                 when this entry is missing, select all common levels of this list
(PID.TID 0000.0001) >#  fields(:,n) : list of diagnostics fields (8.c) (see "available_diagnostics" file
(PID.TID 0000.0001) >#                 for the list of all available diag. in this particular config)
(PID.TID 0000.0001) >#--------------------------------------------------------------------
(PID.TID 0000.0001) >#
(PID.TID 0000.0001) > &diagnostics_list
(PID.TID 0000.0001) >   dumpatlast = .TRUE.,
(PID.TID 0000.0001) >#---
(PID.TID 0000.0001) >  frequency(1) =-3600.,
(PID.TID 0000.0001) >   fields(1:8,1) = 'MXLDEPTH','KPPhbl','EXFuwind','EXFvwind',
(PID.TID 0000.0001) >   filename(1) = 'diags/surface',
(PID.TID 0000.0001) >#---
(PID.TID 0000.0001) >  frequency(2) =-3600.,
(PID.TID 0000.0001) >   fields(1:14,2)= 'THETA','SALT','UVEL','VVEL','WVEL',
(PID.TID 0000.0001) >                  'KPPdiffT', 'TRAC01', 'TRAC02',
(PID.TID 0000.0001) >   filename(2) = 'diags/interior',
(PID.TID 0000.0001) >   levels(1:58,2) =  1., 2., 3., 4., 5., 6., 7., 8., 9.,10.,11.,12.,13.,14.,15.,
(PID.TID 0000.0001) >                     16.,17.,18.,19.,20.,21.,22.,23.,24.,25.,26.,27.,28.,29.,30.,
(PID.TID 0000.0001) >                     31.,32.,33.,34.,35.,36.,37.,38.,39.,40.,41.,42.,43.,44.,45.,
(PID.TID 0000.0001) >                     46.,47.,48.,49.,50.,51.,52.,53.,54.,55.,56.,57.,58.,
(PID.TID 0000.0001) >#---
(PID.TID 0000.0001) > /
(PID.TID 0000.0001) >#
(PID.TID 0000.0001) >#
(PID.TID 0000.0001) ># Parameter for Diagnostics of per level statistics:
(PID.TID 0000.0001) >#-----------------
(PID.TID 0000.0001) ># for each output-stream:
(PID.TID 0000.0001) >#  stat_fname(n) : prefix of the output file name (only 8.c long) for outp.stream n
(PID.TID 0000.0001) >#  stat_freq(n):< 0 : write snap-shot output every |stat_freq| seconds
(PID.TID 0000.0001) >#               > 0 : write time-average output every stat_freq seconds
(PID.TID 0000.0001) >#  stat_phase(n)    : write at time = stat_phase + multiple of |stat_freq|
(PID.TID 0000.0001) >#  stat_region(:,n) : list of "regions" (default: 1 region only=global)
(PID.TID 0000.0001) >#  stat_fields(:,n) : list of diagnostics fields (8.c) (see "available_diagnostics.log"
(PID.TID 0000.0001) >#                 file for the list of all available diag. in this particular config)
(PID.TID 0000.0001) >#-----------------
(PID.TID 0000.0001) > &DIAG_STATIS_PARMS
(PID.TID 0000.0001) ># diagSt_regMaskFile='basin_masks_eccollc_90x50.bin',
(PID.TID 0000.0001) ># nSetRegMskFile=1,
(PID.TID 0000.0001) ># set_regMask(1)= 1,  1,  1,  1,  1,  1,  1,  1,  1,
(PID.TID 0000.0001) >#                 1,  1,  1,  1,  1,  1,  1,  1
(PID.TID 0000.0001) ># val_regMask(1)= 1., 2., 3., 4., 5., 6., 7., 8., 9.,
(PID.TID 0000.0001) >#                10.,11.,12.,13.,14.,15.,16.,17.
(PID.TID 0000.0001) >##---
(PID.TID 0000.0001) ># stat_fields(1,1)= 'ETAN    ','ETANSQ  ','DETADT2 ',
(PID.TID 0000.0001) >#                   'UVEL    ','VVEL    ','WVEL    ',
(PID.TID 0000.0001) >#                   'THETA   ','SALT    ',
(PID.TID 0000.0001) >#    stat_fname(1)= 'dynStDiag',
(PID.TID 0000.0001) >#     stat_freq(1)= 3153600.,
(PID.TID 0000.0001) ># stat_region(1,1)=  1, 2, 3, 4, 5, 6, 7, 8, 9,
(PID.TID 0000.0001) >#                   10,11,12,13,14,15,16,17
(PID.TID 0000.0001) >##---
(PID.TID 0000.0001) ># stat_fields(1,2)= 'oceTAUX ','oceTAUY ',
(PID.TID 0000.0001) >#                   'surForcT','surForcS','TFLUX   ','SFLUX   ',
(PID.TID 0000.0001) >#                   'oceQnet ','oceSflux','oceFWflx',
(PID.TID 0000.0001) >#    stat_fname(2)= 'surfStDiag',
(PID.TID 0000.0001) >#     stat_freq(2)= 3153600.,
(PID.TID 0000.0001) ># stat_region(1,2)=  1, 2, 3, 4, 5, 6, 7, 8, 9,
(PID.TID 0000.0001) >#                   10,11,12,13,14,15,16,17
(PID.TID 0000.0001) > /
(PID.TID 0000.0001) 
(PID.TID 0000.0001) S/R DIAGNOSTICS_READPARMS, read namelist "diagnostics_list": start
(PID.TID 0000.0001) S/R DIAGNOSTICS_READPARMS, read namelist "diagnostics_list": OK
(PID.TID 0000.0001) S/R DIAGNOSTICS_READPARMS, read namelist "DIAG_STATIS_PARMS": start
(PID.TID 0000.0001) S/R DIAGNOSTICS_READPARMS, read namelist "DIAG_STATIS_PARMS": OK
(PID.TID 0000.0001)  DIAGNOSTICS_READPARMS: global parameter summary:
(PID.TID 0000.0001)  dumpAtLast = /* always write time-ave diags at the end */
(PID.TID 0000.0001)                   T
(PID.TID 0000.0001)     ;
(PID.TID 0000.0001)  diag_mnc =   /* write NetCDF output files */
(PID.TID 0000.0001)                   F
(PID.TID 0000.0001)     ;
(PID.TID 0000.0001)  useMissingValue = /* put MissingValue where mask = 0 */
(PID.TID 0000.0001)                   F
(PID.TID 0000.0001)     ;
(PID.TID 0000.0001)  diagCG_maxIters = /* max number of iters in diag_cg2d */
(PID.TID 0000.0001)                    1000
(PID.TID 0000.0001)     ;
(PID.TID 0000.0001)  diagCG_resTarget = /* residual target for diag_cg2d */
(PID.TID 0000.0001)                 1.000000000000000E-07
(PID.TID 0000.0001)     ;
(PID.TID 0000.0001)  diagCG_pcOffDFac = /* preconditioner off-diagonal factor */
(PID.TID 0000.0001)                 9.611687812379854E-01
(PID.TID 0000.0001)     ;
(PID.TID 0000.0001) -----------------------------------------------------
(PID.TID 0000.0001)  DIAGNOSTICS_READPARMS: active diagnostics summary:
(PID.TID 0000.0001) -----------------------------------------------------
(PID.TID 0000.0001) Creating Output Stream: diags/surface
(PID.TID 0000.0001) Output Frequency:      -3600.000000 ; Phase:        1800.000000
(PID.TID 0000.0001)  Averaging Freq.:          0.000000 , Phase:           0.000000 , Cycle:   1
(PID.TID 0000.0001)  missing value: -9.990000000000E+02
(PID.TID 0000.0001)  Levels:    will be set later
(PID.TID 0000.0001)  Fields:    MXLDEPTH KPPhbl   EXFuwind EXFvwind
(PID.TID 0000.0001) Creating Output Stream: diags/interior
(PID.TID 0000.0001) Output Frequency:      -3600.000000 ; Phase:        1800.000000
(PID.TID 0000.0001)  Averaging Freq.:          0.000000 , Phase:           0.000000 , Cycle:   1
(PID.TID 0000.0001)  missing value: -9.990000000000E+02
(PID.TID 0000.0001)  Levels:       1.   2.   3.   4.   5.   6.   7.   8.   9.  10.  11.  12.  13.  14.  15.  16.  17.  18.  19.  20.
(PID.TID 0000.0001)  Levels:      21.  22.  23.  24.  25.  26.  27.  28.  29.  30.  31.  32.  33.  34.  35.  36.  37.  38.  39.  40.
(PID.TID 0000.0001)  Levels:      41.  42.  43.  44.  45.  46.  47.  48.  49.  50.  51.  52.  53.  54.  55.  56.  57.  58.
(PID.TID 0000.0001)  Fields:    THETA    SALT     UVEL     VVEL     WVEL     KPPdiffT TRAC01   TRAC02
(PID.TID 0000.0001) -----------------------------------------------------
(PID.TID 0000.0001)  DIAGNOSTICS_READPARMS: statistics diags. summary:
(PID.TID 0000.0001) -----------------------------------------------------
(PID.TID 0000.0001) 
(PID.TID 0000.0001) SET_PARMS: done
(PID.TID 0000.0001) Enter INI_VERTICAL_GRID: setInterFDr=    T ; setCenterDr=    F
(PID.TID 0000.0001) %MON XC_max                       =  -5.9130389012298E+00
(PID.TID 0000.0001) %MON XC_min                       =  -8.1570551572195E+01
(PID.TID 0000.0001) %MON XC_mean                      =  -4.3082614192395E+01
(PID.TID 0000.0001) %MON XC_sd                        =   2.0059025650461E+01
(PID.TID 0000.0001) %MON XG_max                       =  -5.9258232055000E+00
(PID.TID 0000.0001) %MON XG_min                       =  -8.1583335876465E+01
(PID.TID 0000.0001) %MON XG_mean                      =  -4.3095398496665E+01
(PID.TID 0000.0001) %MON XG_sd                        =   2.0059025650461E+01
(PID.TID 0000.0001) %MON DXC_max                      =   2.5358404386095E+03
(PID.TID 0000.0001) %MON DXC_min                      =   2.0615935803036E+03
(PID.TID 0000.0001) %MON DXC_mean                     =   2.3199157624265E+03
(PID.TID 0000.0001) %MON DXC_sd                       =   1.3547813987080E+02
(PID.TID 0000.0001) %MON DXF_max                      =   2.5358404386095E+03
(PID.TID 0000.0001) %MON DXF_min                      =   2.0615935803036E+03
(PID.TID 0000.0001) %MON DXF_mean                     =   2.3199157624265E+03
(PID.TID 0000.0001) %MON DXF_sd                       =   1.3547813987080E+02
(PID.TID 0000.0001) %MON DXG_max                      =   2.5360739431358E+03
(PID.TID 0000.0001) %MON DXG_min                      =   2.0619493695573E+03
(PID.TID 0000.0001) %MON DXG_mean                     =   2.3202113088535E+03
(PID.TID 0000.0001) %MON DXG_sd                       =   1.3544328728487E+02
(PID.TID 0000.0001) %MON DXV_max                      =   2.5360739431358E+03
(PID.TID 0000.0001) %MON DXV_min                      =   2.0619493695573E+03
(PID.TID 0000.0001) %MON DXV_mean                     =   2.3202113088535E+03
(PID.TID 0000.0001) %MON DXV_sd                       =   1.3544328728487E+02
(PID.TID 0000.0001) %MON YC_max                       =   4.3511543273927E+01
(PID.TID 0000.0001) %MON YC_min                       =   2.6865709940592E+01
(PID.TID 0000.0001) %MON YC_mean                      =   3.5023623512242E+01
(PID.TID 0000.0001) %MON YC_sd                        =   4.7479049454459E+00
(PID.TID 0000.0001) %MON YG_max                       =   4.3501126607260E+01
(PID.TID 0000.0001) %MON YG_min                       =   2.6855293273926E+01
(PID.TID 0000.0001) %MON YG_mean                      =   3.5013206845576E+01
(PID.TID 0000.0001) %MON YG_sd                        =   4.7479049454459E+00
(PID.TID 0000.0001) %MON DYC_max                      =   2.3161973615008E+03
(PID.TID 0000.0001) %MON DYC_min                      =   2.3161973615008E+03
(PID.TID 0000.0001) %MON DYC_mean                     =   2.3161973615005E+03
(PID.TID 0000.0001) %MON DYC_sd                       =   2.5556801119819E-10
(PID.TID 0000.0001) %MON DYF_max                      =   2.3161973615008E+03
(PID.TID 0000.0001) %MON DYF_min                      =   2.3161973615008E+03
(PID.TID 0000.0001) %MON DYF_mean                     =   2.3161973615005E+03
(PID.TID 0000.0001) %MON DYF_sd                       =   2.5556801119819E-10
(PID.TID 0000.0001) %MON DYG_max                      =   2.3161973615008E+03
(PID.TID 0000.0001) %MON DYG_min                      =   2.3161973615008E+03
(PID.TID 0000.0001) %MON DYG_mean                     =   2.3161973615005E+03
(PID.TID 0000.0001) %MON DYG_sd                       =   2.5556801119819E-10
(PID.TID 0000.0001) %MON DYU_max                      =   2.3161973615008E+03
(PID.TID 0000.0001) %MON DYU_min                      =   2.3161973615008E+03
(PID.TID 0000.0001) %MON DYU_mean                     =   2.3161973615005E+03
(PID.TID 0000.0001) %MON DYU_sd                       =   2.5556801119819E-10
(PID.TID 0000.0001) %MON RA_max                       =   5.8735069007379E+06
(PID.TID 0000.0001) %MON RA_min                       =   4.7750575848807E+06
(PID.TID 0000.0001) %MON RA_mean                      =   5.3733827382354E+06
(PID.TID 0000.0001) %MON RA_sd                        =   3.1379410838081E+05
(PID.TID 0000.0001) %MON RAW_max                      =   5.8735069007379E+06
(PID.TID 0000.0001) %MON RAW_min                      =   4.7750575848807E+06
(PID.TID 0000.0001) %MON RAW_mean                     =   5.3733827382354E+06
(PID.TID 0000.0001) %MON RAW_sd                       =   3.1379410838081E+05
(PID.TID 0000.0001) %MON RAS_max                      =   5.8740477433032E+06
(PID.TID 0000.0001) %MON RAS_min                      =   4.7758816630078E+06
(PID.TID 0000.0001) %MON RAS_mean                     =   5.3740672820864E+06
(PID.TID 0000.0001) %MON RAS_sd                       =   3.1371338291367E+05
(PID.TID 0000.0001) %MON RAZ_max                      =   5.8740477433032E+06
(PID.TID 0000.0001) %MON RAZ_min                      =   4.7758816630078E+06
(PID.TID 0000.0001) %MON RAZ_mean                     =   5.3740672820864E+06
(PID.TID 0000.0001) %MON RAZ_sd                       =   3.1371338291365E+05
(PID.TID 0000.0001) %MON AngleCS_max                  =   1.0000000000000E+00
(PID.TID 0000.0001) %MON AngleCS_min                  =   1.0000000000000E+00
(PID.TID 0000.0001) %MON AngleCS_mean                 =   1.0000000000000E+00
(PID.TID 0000.0001) %MON AngleCS_sd                   =   0.0000000000000E+00
(PID.TID 0000.0001) %MON AngleSN_max                  =   0.0000000000000E+00
(PID.TID 0000.0001) %MON AngleSN_min                  =   0.0000000000000E+00
(PID.TID 0000.0001) %MON AngleSN_mean                 =   0.0000000000000E+00
(PID.TID 0000.0001) %MON AngleSN_sd                   =   0.0000000000000E+00
(PID.TID 0000.0001) 
(PID.TID 0000.0001) // =======================================================
(PID.TID 0000.0001) // Calendar configuration >>> START <<<
(PID.TID 0000.0001) // =======================================================
(PID.TID 0000.0001) 
(PID.TID 0000.0001) modelstart = /* Start time of the model integration [s] */
(PID.TID 0000.0001)                 1.264896000000000E+09
(PID.TID 0000.0001)     ;
(PID.TID 0000.0001) modelend  = /* End time of the model integration [s] */
(PID.TID 0000.0001)                 1.265068800000000E+09
(PID.TID 0000.0001)     ;
(PID.TID 0000.0001) modelStep = /* Time interval for a model forward step [s] */
(PID.TID 0000.0001)                 8.000000000000000E+01
(PID.TID 0000.0001)     ;
(PID.TID 0000.0001) usingGregorianCalendar= /* Calendar Type: Gregorian Calendar */
(PID.TID 0000.0001)                   T
(PID.TID 0000.0001)     ;
(PID.TID 0000.0001) usingJulianCalendar = /* Calendar Type: Julian Calendar */
(PID.TID 0000.0001)                   F
(PID.TID 0000.0001)     ;
(PID.TID 0000.0001) usingNoLeapYearCal  = /* Calendar Type: without Leap Year */
(PID.TID 0000.0001)                   F
(PID.TID 0000.0001)     ;
(PID.TID 0000.0001) usingModelCalendar  = /* Calendar Type: Model Calendar */
(PID.TID 0000.0001)                   F
(PID.TID 0000.0001)     ;
(PID.TID 0000.0001) modelStartDate YYYYMMDD = /* Model start date YYYY-MM-DD */
(PID.TID 0000.0001)                20480131
(PID.TID 0000.0001)     ;
(PID.TID 0000.0001)   modelStartDate HHMMSS = /* Model start date HH-MM-SS  */
(PID.TID 0000.0001)                       0
(PID.TID 0000.0001)     ;
(PID.TID 0000.0001) modelEndDate   YYYYMMDD = /* Model end date YYYY-MM-DD */
(PID.TID 0000.0001)                20480202
(PID.TID 0000.0001)     ;
(PID.TID 0000.0001)   modelEndDate   HHMMSS = /* Model end date HH-MM-SS  */
(PID.TID 0000.0001)                       0
(PID.TID 0000.0001)     ;
(PID.TID 0000.0001) intyears = /* Number of calendar years affected by the integration */
(PID.TID 0000.0001)                       1
(PID.TID 0000.0001)     ;
(PID.TID 0000.0001) intmonths= /* Number of calendar months affected by the integration */
(PID.TID 0000.0001)                       2
(PID.TID 0000.0001)     ;
(PID.TID 0000.0001) intdays = /* Number of calendar days affected by the integration */
(PID.TID 0000.0001)                       2
(PID.TID 0000.0001)     ;
(PID.TID 0000.0001) modelIter0 = /* Base timestep number  */
(PID.TID 0000.0001)                15811200
(PID.TID 0000.0001)     ;
(PID.TID 0000.0001) modelIterEnd = /* Final timestep number  */
(PID.TID 0000.0001)                15813360
(PID.TID 0000.0001)     ;
(PID.TID 0000.0001) modelIntSteps= /* Number of model timesteps  */
(PID.TID 0000.0001)                    2160
(PID.TID 0000.0001)     ;
(PID.TID 0000.0001) 
(PID.TID 0000.0001) // =======================================================
(PID.TID 0000.0001) // Calendar configuration  >>> END <<<
(PID.TID 0000.0001) // =======================================================
(PID.TID 0000.0001) 
(PID.TID 0000.0001) GAD_INIT_FIXED: GAD_OlMinSize=  4  0  1
(PID.TID 0000.0001) 
(PID.TID 0000.0001) // ===================================
(PID.TID 0000.0001) // GAD parameters :
(PID.TID 0000.0001) // ===================================
(PID.TID 0000.0001) tempAdvScheme =   /* Temp. Horiz.Advection scheme selector */
(PID.TID 0000.0001)                       7
(PID.TID 0000.0001)     ;
(PID.TID 0000.0001) tempVertAdvScheme =   /* Temp. Vert. Advection scheme selector */
(PID.TID 0000.0001)                       7
(PID.TID 0000.0001)     ;
(PID.TID 0000.0001) tempMultiDimAdvec =   /* use Muti-Dim Advec method for Temp */
(PID.TID 0000.0001)                   T
(PID.TID 0000.0001)     ;
(PID.TID 0000.0001) tempSOM_Advection = /* use 2nd Order Moment Advection for Temp */
(PID.TID 0000.0001)                   F
(PID.TID 0000.0001)     ;
(PID.TID 0000.0001) AdamsBashforthGt = /* apply Adams-Bashforth extrapolation on Gt */
(PID.TID 0000.0001)                   F
(PID.TID 0000.0001)     ;
(PID.TID 0000.0001) AdamsBashforth_T = /* apply Adams-Bashforth extrapolation on Temp */
(PID.TID 0000.0001)                   F
(PID.TID 0000.0001)     ;
(PID.TID 0000.0001) saltAdvScheme =   /* Salt. Horiz.advection scheme selector */
(PID.TID 0000.0001)                       7
(PID.TID 0000.0001)     ;
(PID.TID 0000.0001) saltVertAdvScheme =   /* Salt. Vert. Advection scheme selector */
(PID.TID 0000.0001)                       7
(PID.TID 0000.0001)     ;
(PID.TID 0000.0001) saltMultiDimAdvec =   /* use Muti-Dim Advec method for Salt */
(PID.TID 0000.0001)                   T
(PID.TID 0000.0001)     ;
(PID.TID 0000.0001) saltSOM_Advection = /* use 2nd Order Moment Advection for Salt */
(PID.TID 0000.0001)                   F
(PID.TID 0000.0001)     ;
(PID.TID 0000.0001) AdamsBashforthGs = /* apply Adams-Bashforth extrapolation on Gs */
(PID.TID 0000.0001)                   F
(PID.TID 0000.0001)     ;
(PID.TID 0000.0001) AdamsBashforth_S = /* apply Adams-Bashforth extrapolation on Salt */
(PID.TID 0000.0001)                   F
(PID.TID 0000.0001)     ;
(PID.TID 0000.0001) // ===================================
(PID.TID 0000.0001) OBCS_INIT_FIXED: Setting OB indices in Overlap
(PID.TID 0000.0001)  Sets OBS(i,bi,bj=   21,  1,  1)=    1
(PID.TID 0000.0001)  Sets OBS(i,bi,bj=   22,  1,  1)=    1
(PID.TID 0000.0001)  Sets OBS(i,bi,bj=   23,  1,  1)=    1
(PID.TID 0000.0001)  Sets OBS(i,bi,bj=   24,  1,  1)=    1
(PID.TID 0000.0001) OBCS_INIT_FIXED: Setting OB indices in Overlap <= done
(PID.TID 0000.0001) 
(PID.TID 0000.0001) // =======================================================
(PID.TID 0000.0001) // External forcing (EXF) configuration >>> START <<<
(PID.TID 0000.0001) // =======================================================
(PID.TID 0000.0001) 
(PID.TID 0000.0001)  EXF general parameters:
(PID.TID 0000.0001) 
(PID.TID 0000.0001) exf_iprec = /* exf file precision */
(PID.TID 0000.0001)                      32
(PID.TID 0000.0001)     ;
(PID.TID 0000.0001) useExfYearlyFields = /* add extension _YEAR to input file names */
(PID.TID 0000.0001)                   T
(PID.TID 0000.0001)     ;
(PID.TID 0000.0001) twoDigitYear = /* use 2-digit year extension */
(PID.TID 0000.0001)                   F
(PID.TID 0000.0001)     ;
(PID.TID 0000.0001) useExfCheckRange = /* check for fields range */
(PID.TID 0000.0001)                   F
(PID.TID 0000.0001)     ;
(PID.TID 0000.0001) exf_output_interp = /* output directly interpolation result */
(PID.TID 0000.0001)                   F
(PID.TID 0000.0001)     ;
(PID.TID 0000.0001) exf_debugLev = /* select EXF-debug printing level */
(PID.TID 0000.0001)                       1
(PID.TID 0000.0001)     ;
(PID.TID 0000.0001) exf_monFreq  = /* EXF monitor frequency [ s ] */
(PID.TID 0000.0001)                 3.600000000000000E+03
(PID.TID 0000.0001)     ;
(PID.TID 0000.0001) repeatPeriod = /* period for cycling forcing dataset [ s ] */
(PID.TID 0000.0001)                 0.000000000000000E+00
(PID.TID 0000.0001)     ;
(PID.TID 0000.0001) climTempFreeze= /* Minimum climatological temperature [deg.C] */
(PID.TID 0000.0001)                -1.900000000000000E+00
(PID.TID 0000.0001)     ;
(PID.TID 0000.0001) windStressMax = /* Maximum absolute windstress [ Pa ] */
(PID.TID 0000.0001)                 2.000000000000000E+00
(PID.TID 0000.0001)     ;
(PID.TID 0000.0001) stressIsOnCgrid = /* set u,v_stress on Arakawa C-grid */
(PID.TID 0000.0001)                   F
(PID.TID 0000.0001)     ;
(PID.TID 0000.0001) rotateStressOnAgrid = /* rotate u,v_stress on Arakawa A-grid */
(PID.TID 0000.0001)                   F
(PID.TID 0000.0001)     ;
(PID.TID 0000.0001) cen2kel = /* conversion of deg. Centigrade to Kelvin [K] */
(PID.TID 0000.0001)                 2.731500000000000E+02
(PID.TID 0000.0001)     ;
(PID.TID 0000.0001) gravity_mks= /* gravitational acceleration [m/s^2] */
(PID.TID 0000.0001)                 9.810000000000000E+00
(PID.TID 0000.0001)     ;
(PID.TID 0000.0001) atmrho =  /* mean atmospheric density [kg/m^3] */
(PID.TID 0000.0001)                 1.200000000000000E+00
(PID.TID 0000.0001)     ;
(PID.TID 0000.0001) atmcp =  /* mean atmospheric specific heat [J/kg/K] */
(PID.TID 0000.0001)                 1.005000000000000E+03
(PID.TID 0000.0001)     ;
(PID.TID 0000.0001) flamb =  /* latent heat of evaporation [J/kg] */
(PID.TID 0000.0001)                 2.500000000000000E+06
(PID.TID 0000.0001)     ;
(PID.TID 0000.0001) flami =  /* latent heat of pure-ice melting [J/kg] */
(PID.TID 0000.0001)                 3.340000000000000E+05
(PID.TID 0000.0001)     ;
(PID.TID 0000.0001) cvapor_fac = /* const. for Saturation calculation [?] */
(PID.TID 0000.0001)                 6.403800000000000E+05
(PID.TID 0000.0001)     ;
(PID.TID 0000.0001) cvapor_exp = /* const. for Saturation calculation [?] */
(PID.TID 0000.0001)                 5.107400000000000E+03
(PID.TID 0000.0001)     ;
(PID.TID 0000.0001) cvapor_fac_ice= /* const. for Saturation calculation [?] */
(PID.TID 0000.0001)                 1.163780000000000E+07
(PID.TID 0000.0001)     ;
(PID.TID 0000.0001) cvapor_exp_ice= /* const. for Saturation calculation [?] */
(PID.TID 0000.0001)                 5.897800000000000E+03
(PID.TID 0000.0001)     ;
(PID.TID 0000.0001) humid_fac = /* humidity coef. in virtual temp. [(kg/kg)^-1] */
(PID.TID 0000.0001)                 6.060000000000000E-01
(PID.TID 0000.0001)     ;
(PID.TID 0000.0001) gamma_blk = /* adiabatic lapse rate [?] */
(PID.TID 0000.0001)                 1.000000000000000E-02
[...]
(PID.TID 0000.0001) %MON dynstat_sst_mean             =   1.7641433422744E+01
(PID.TID 0000.0001) %MON dynstat_sst_sd               =   3.3913392481916E+00
(PID.TID 0000.0001) %MON dynstat_sst_del2             =   9.2215646309170E-05
(PID.TID 0000.0001) %MON dynstat_sss_max              =   8.9666587237761E+01
(PID.TID 0000.0001) %MON dynstat_sss_min              =   2.0158606466456E+00
(PID.TID 0000.0001) %MON dynstat_sss_mean             =   3.6425116574176E+01
(PID.TID 0000.0001) %MON dynstat_sss_sd               =   4.5368612592946E-01
(PID.TID 0000.0001) %MON dynstat_sss_del2             =   1.6878049622189E-05
(PID.TID 0000.0001) %MON forcing_qnet_max             =   1.1073658044513E+03
(PID.TID 0000.0001) %MON forcing_qnet_min             =  -7.4463047796420E+01
(PID.TID 0000.0001) %MON forcing_qnet_mean            =   3.0889651232070E+02
(PID.TID 0000.0001) %MON forcing_qnet_sd              =   1.8372209653795E+02
(PID.TID 0000.0001) %MON forcing_qnet_del2            =   5.6828908222871E-03
(PID.TID 0000.0001) %MON forcing_qsw_max              =   0.0000000000000E+00
(PID.TID 0000.0001) %MON forcing_qsw_min              =  -8.9538326381447E-06
(PID.TID 0000.0001) %MON forcing_qsw_mean             =  -1.4996947393664E-11
(PID.TID 0000.0001) %MON forcing_qsw_sd               =   8.8453929252307E-09
(PID.TID 0000.0001) %MON forcing_qsw_del2             =   3.9503945687013E-12
(PID.TID 0000.0001) %MON forcing_empmr_max            =   2.6378689716433E-04
(PID.TID 0000.0001) %MON forcing_empmr_min            =  -9.7109307885086E-04
(PID.TID 0000.0001) %MON forcing_empmr_mean           =   5.8637241099902E-05
(PID.TID 0000.0001) %MON forcing_empmr_sd             =   8.5805538344324E-05
(PID.TID 0000.0001) %MON forcing_empmr_del2           =   1.4780710332405E-09
(PID.TID 0000.0001) %MON forcing_fu_max               =   8.8229464287733E-01
(PID.TID 0000.0001) %MON forcing_fu_min               =  -1.5978395500355E-01
(PID.TID 0000.0001) %MON forcing_fu_mean              =   1.1525678612021E-01
(PID.TID 0000.0001) %MON forcing_fu_sd                =   1.6687107731621E-01
(PID.TID 0000.0001) %MON forcing_fu_del2              =   9.7061426378844E-07
(PID.TID 0000.0001) %MON forcing_fv_max               =   4.9140334529305E-01
(PID.TID 0000.0001) %MON forcing_fv_min               =  -6.1672471790367E-01
(PID.TID 0000.0001) %MON forcing_fv_mean              =  -6.1468281283016E-02
(PID.TID 0000.0001) %MON forcing_fv_sd                =   1.5152636835815E-01
(PID.TID 0000.0001) %MON forcing_fv_del2              =   7.2988654444540E-07
(PID.TID 0000.0001) %MON trAdv_CFL_u_max              =   1.0281493680029E-01
(PID.TID 0000.0001) %MON trAdv_CFL_v_max              =   8.8929599976071E-02
(PID.TID 0000.0001) %MON trAdv_CFL_w_max              =   3.5405474203508E-01
(PID.TID 0000.0001) %MON advcfl_uvel_max              =   1.0281493623390E-01
(PID.TID 0000.0001) %MON advcfl_vvel_max              =   8.8940206990814E-02
(PID.TID 0000.0001) %MON advcfl_wvel_max              =   3.5661325453290E-01
(PID.TID 0000.0001) %MON advcfl_W_hf_max              =   3.5939929558394E-01
(PID.TID 0000.0001) %MON pe_b_mean                    =   5.5661550410705E-03
(PID.TID 0000.0001) %MON ke_max                       =   4.7116331592400E+00
(PID.TID 0000.0001) %MON ke_mean                      =   8.2604564190681E-03
(PID.TID 0000.0001) %MON ke_vol                       =   4.6123795034297E+16
(PID.TID 0000.0001) %MON vort_r_min                   =  -1.9127755316033E-03
(PID.TID 0000.0001) %MON vort_r_max                   =   1.7869966094489E-03
(PID.TID 0000.0001) %MON vort_a_mean                  =   8.2145907041403E-05
(PID.TID 0000.0001) %MON vort_a_sd                    =   1.4095356848415E-05
(PID.TID 0000.0001) %MON vort_p_mean                  =   8.4437937912604E-05
(PID.TID 0000.0001) %MON vort_p_sd                    =   3.4071915835222E-05
(PID.TID 0000.0001) %MON surfExpan_theta_mean         =   1.1019812774536E-03
(PID.TID 0000.0001) %MON surfExpan_salt_mean          =   2.3907340252130E-03
(PID.TID 0000.0001) // =======================================================
(PID.TID 0000.0001) // End MONITOR dynamic field statistics
(PID.TID 0000.0001) // =======================================================
(PID.TID 0000.0001) // =======================================================
(PID.TID 0000.0001) // Begin OBCS MONITOR field statistics
(PID.TID 0000.0001) // =======================================================
(PID.TID 0000.0001) %MON obc_E_uVel_max               =  -3.7915750859772E-01
(PID.TID 0000.0001) %MON obc_E_uVel_min               =  -7.5034467428408E-01
(PID.TID 0000.0001) %MON obc_E_uVel_mean              =  -5.1969091465090E-01
(PID.TID 0000.0001) %MON obc_E_uVel_sd                =   7.0049010455170E-02
(PID.TID 0000.0001) %MON obc_E_uVel_Int               =  -3.5466051438965E+06
(PID.TID 0000.0001) %MON obc_N_vVel_max               =   7.4566080000063E-01
(PID.TID 0000.0001) %MON obc_N_vVel_min               =  -2.4913208824029E-01
(PID.TID 0000.0001) %MON obc_N_vVel_mean              =  -3.5446071890868E-04
(PID.TID 0000.0001) %MON obc_N_vVel_sd                =   3.7100638432424E-02
(PID.TID 0000.0001) %MON obc_N_vVel_Int               =  -5.0580285204091E+06
(PID.TID 0000.0001) %MON obc_S_vVel_max               =   1.2461571459702E+00
(PID.TID 0000.0001) %MON obc_S_vVel_min               =  -1.5299529107142E-01
(PID.TID 0000.0001) %MON obc_S_vVel_mean              =   2.4281840773445E-02
(PID.TID 0000.0001) %MON obc_S_vVel_sd                =   2.9078425623133E-02
(PID.TID 0000.0001) %MON obc_S_vVel_Int               =   7.3835830556631E+08
(PID.TID 0000.0001) %MON obc_E_theta_max              =   1.5981519699097E+01
(PID.TID 0000.0001) %MON obc_E_theta_min              =   1.3104037284851E+01
(PID.TID 0000.0001) %MON obc_E_theta_mean             =   1.4974089986960E+01
(PID.TID 0000.0001) %MON obc_E_theta_sd               =   6.0075505804650E-01
(PID.TID 0000.0001) %MON obc_N_theta_max              =   1.5721092224121E+01
(PID.TID 0000.0001) %MON obc_N_theta_min              =   9.7373789548874E-01
(PID.TID 0000.0001) %MON obc_N_theta_mean             =   5.3443110148828E+00
(PID.TID 0000.0001) %MON obc_N_theta_sd               =   3.5834807335781E+00
(PID.TID 0000.0001) %MON obc_S_theta_max              =   2.4979528427124E+01
(PID.TID 0000.0001) %MON obc_S_theta_min              =   1.5124862194061E+00
(PID.TID 0000.0001) %MON obc_S_theta_mean             =   5.4273114502690E+00
(PID.TID 0000.0001) %MON obc_S_theta_sd               =   5.1694562801555E+00
(PID.TID 0000.0001) %MON obc_E_salt_max               =   3.8703720092773E+01
(PID.TID 0000.0001) %MON obc_E_salt_min               =   3.6289142608643E+01
(PID.TID 0000.0001) %MON obc_E_salt_mean              =   3.6643778075730E+01
(PID.TID 0000.0001) %MON obc_E_salt_sd                =   5.5037722650442E-01
(PID.TID 0000.0001) %MON obc_N_salt_max               =   3.6066974639893E+01
(PID.TID 0000.0001) %MON obc_N_salt_min               =   3.2878395080566E+01
(PID.TID 0000.0001) %MON obc_N_salt_mean              =   3.5117165924185E+01
(PID.TID 0000.0001) %MON obc_N_salt_sd                =   3.1541903364831E-01
(PID.TID 0000.0001) %MON obc_S_salt_max               =   3.7600940704346E+01
(PID.TID 0000.0001) %MON obc_S_salt_min               =   3.4853485107422E+01
(PID.TID 0000.0001) %MON obc_S_salt_mean              =   3.5185630803177E+01
(PID.TID 0000.0001) %MON obc_S_salt_sd                =   4.9502018312198E-01
(PID.TID 0000.0001) // =======================================================
(PID.TID 0000.0001) // End OBCS MONITOR field statistics
(PID.TID 0000.0001) // =======================================================
(PID.TID 0000.0001) // =======================================================
(PID.TID 0000.0001) // Begin MONITOR ptracer field statistics
(PID.TID 0000.0001) // =======================================================
(PID.TID 0000.0001) %MON trcstat_ptracer01_max        =   0.0000000000000E+00
(PID.TID 0000.0001) %MON trcstat_ptracer01_min        =   0.0000000000000E+00
(PID.TID 0000.0001) %MON trcstat_ptracer01_mean       =   0.0000000000000E+00
(PID.TID 0000.0001) %MON trcstat_ptracer01_sd         =   0.0000000000000E+00
(PID.TID 0000.0001) %MON trcstat_ptracer01_del2       =   0.0000000000000E+00
(PID.TID 0000.0001) %MON trcstat_ptracer02_max        =   0.0000000000000E+00
(PID.TID 0000.0001) %MON trcstat_ptracer02_min        =   0.0000000000000E+00
(PID.TID 0000.0001) %MON trcstat_ptracer02_mean       =   0.0000000000000E+00
(PID.TID 0000.0001) %MON trcstat_ptracer02_sd         =   0.0000000000000E+00
(PID.TID 0000.0001) %MON trcstat_ptracer02_del2       =   0.0000000000000E+00
(PID.TID 0000.0001) // =======================================================
(PID.TID 0000.0001) // End MONITOR ptracer field statistics
(PID.TID 0000.0001) // =======================================================
(PID.TID 0000.0001) %CHECKPOINT  15813360 ckptA
(PID.TID 0000.0001)   Seconds in section "ALL                    [THE_MODEL_MAIN]":
(PID.TID 0000.0001)           User time:   2337.75713729858
(PID.TID 0000.0001)         System time:  0.000000000000000E+000
(PID.TID 0000.0001)     Wall clock time:   2714.15549492836
(PID.TID 0000.0001)          No. starts:           1
(PID.TID 0000.0001)           No. stops:           1
(PID.TID 0000.0001)   Seconds in section "INITIALISE_FIXED       [THE_MODEL_MAIN]":
(PID.TID 0000.0001)           User time:   187.763698577881
(PID.TID 0000.0001)         System time:  0.000000000000000E+000
(PID.TID 0000.0001)     Wall clock time:   209.269754171371
(PID.TID 0000.0001)          No. starts:           1
(PID.TID 0000.0001)           No. stops:           1
(PID.TID 0000.0001)   Seconds in section "THE_MAIN_LOOP          [THE_MODEL_MAIN]":
(PID.TID 0000.0001)           User time:   2149.99343872070
(PID.TID 0000.0001)         System time:  0.000000000000000E+000
(PID.TID 0000.0001)     Wall clock time:   2504.88569211960
(PID.TID 0000.0001)          No. starts:           1
(PID.TID 0000.0001)           No. stops:           1
(PID.TID 0000.0001)   Seconds in section "INITIALISE_VARIA    [THE_MAIN_LOOP]":
(PID.TID 0000.0001)           User time:   76.6767272949219
(PID.TID 0000.0001)         System time:  0.000000000000000E+000
(PID.TID 0000.0001)     Wall clock time:   116.068166971207
(PID.TID 0000.0001)          No. starts:           1
(PID.TID 0000.0001)           No. stops:           1
(PID.TID 0000.0001)   Seconds in section "MAIN LOOP           [THE_MAIN_LOOP]":
(PID.TID 0000.0001)           User time:   2073.31668090820
(PID.TID 0000.0001)         System time:  0.000000000000000E+000
(PID.TID 0000.0001)     Wall clock time:   2388.81748509407
(PID.TID 0000.0001)          No. starts:           1
(PID.TID 0000.0001)           No. stops:           1
(PID.TID 0000.0001)   Seconds in section "MAIN_DO_LOOP        [THE_MAIN_LOOP]":
(PID.TID 0000.0001)           User time:   2073.30541992188
(PID.TID 0000.0001)         System time:  0.000000000000000E+000
(PID.TID 0000.0001)     Wall clock time:   2388.80703258514
(PID.TID 0000.0001)          No. starts:        2160
(PID.TID 0000.0001)           No. stops:        2160
(PID.TID 0000.0001)   Seconds in section "FORWARD_STEP        [MAIN_DO_LOOP]":
(PID.TID 0000.0001)           User time:   2073.28347778320
(PID.TID 0000.0001)         System time:  0.000000000000000E+000
(PID.TID 0000.0001)     Wall clock time:   2388.76859855652
(PID.TID 0000.0001)          No. starts:        2160
(PID.TID 0000.0001)           No. stops:        2160
(PID.TID 0000.0001)   Seconds in section "DO_STATEVARS_DIAGS  [FORWARD_STEP]":
(PID.TID 0000.0001)           User time:  0.144073486328125
(PID.TID 0000.0001)         System time:  0.000000000000000E+000
(PID.TID 0000.0001)     Wall clock time:   2.53488063812256
(PID.TID 0000.0001)          No. starts:        6480
(PID.TID 0000.0001)           No. stops:        6480
(PID.TID 0000.0001)   Seconds in section "LOAD_FIELDS_DRIVER  [FORWARD_STEP]":
(PID.TID 0000.0001)           User time:   149.386108398438
(PID.TID 0000.0001)         System time:  0.000000000000000E+000
(PID.TID 0000.0001)     Wall clock time:   226.277229785919
(PID.TID 0000.0001)          No. starts:        2160
(PID.TID 0000.0001)           No. stops:        2160
(PID.TID 0000.0001)   Seconds in section "EXF_GETFORCING     [LOAD_FLDS_DRIVER]":
(PID.TID 0000.0001)           User time:   149.338378906250
(PID.TID 0000.0001)         System time:  0.000000000000000E+000
(PID.TID 0000.0001)     Wall clock time:   225.887226343155
(PID.TID 0000.0001)          No. starts:        2160
(PID.TID 0000.0001)           No. stops:        2160
(PID.TID 0000.0001)   Seconds in section "EXTERNAL_FLDS_LOAD [LOAD_FLDS_DRIVER]":
(PID.TID 0000.0001)           User time:  1.242065429687500E-002
(PID.TID 0000.0001)         System time:  0.000000000000000E+000
(PID.TID 0000.0001)     Wall clock time:  1.188778877258301E-002
(PID.TID 0000.0001)          No. starts:        2160
(PID.TID 0000.0001)           No. stops:        2160
(PID.TID 0000.0001)   Seconds in section "DO_ATMOSPHERIC_PHYS [FORWARD_STEP]":
(PID.TID 0000.0001)           User time:  1.177978515625000E-002
(PID.TID 0000.0001)         System time:  0.000000000000000E+000
(PID.TID 0000.0001)     Wall clock time:  1.152276992797852E-002
(PID.TID 0000.0001)          No. starts:        2160
(PID.TID 0000.0001)           No. stops:        2160
(PID.TID 0000.0001)   Seconds in section "DO_OCEANIC_PHYS     [FORWARD_STEP]":
(PID.TID 0000.0001)           User time:   167.355346679688
(PID.TID 0000.0001)         System time:  0.000000000000000E+000
(PID.TID 0000.0001)     Wall clock time:   171.630331039429
(PID.TID 0000.0001)          No. starts:        2160
(PID.TID 0000.0001)           No. stops:        2160
(PID.TID 0000.0001)   Seconds in section "KPP_CALC [DO_OCEANIC_PHYS]":
(PID.TID 0000.0001)           User time:   27.6576538085938
(PID.TID 0000.0001)         System time:  0.000000000000000E+000
(PID.TID 0000.0001)     Wall clock time:   28.7510592937469
(PID.TID 0000.0001)          No. starts:        2160
(PID.TID 0000.0001)           No. stops:        2160
(PID.TID 0000.0001)   Seconds in section "DYNAMICS            [FORWARD_STEP]":
(PID.TID 0000.0001)           User time:   30.1051025390625
(PID.TID 0000.0001)         System time:  0.000000000000000E+000
(PID.TID 0000.0001)     Wall clock time:   30.3533935546875
(PID.TID 0000.0001)          No. starts:        2160
(PID.TID 0000.0001)           No. stops:        2160
(PID.TID 0000.0001)   Seconds in section "UPDATE_SURF_DR      [FORWARD_STEP]":
(PID.TID 0000.0001)           User time:   1.26489257812500
(PID.TID 0000.0001)         System time:  0.000000000000000E+000
(PID.TID 0000.0001)     Wall clock time:   1.27980351448059
(PID.TID 0000.0001)          No. starts:        2160
(PID.TID 0000.0001)           No. stops:        2160
(PID.TID 0000.0001)   Seconds in section "SOLVE_FOR_PRESSURE  [FORWARD_STEP]":
(PID.TID 0000.0001)           User time:   531.247283935547
(PID.TID 0000.0001)         System time:  0.000000000000000E+000
(PID.TID 0000.0001)     Wall clock time:   531.440940856934
(PID.TID 0000.0001)          No. starts:        2160
(PID.TID 0000.0001)           No. stops:        2160
(PID.TID 0000.0001)   Seconds in section "MOM_CORRECTION_STEP [FORWARD_STEP]":
(PID.TID 0000.0001)           User time:   2.24746704101562
(PID.TID 0000.0001)         System time:  0.000000000000000E+000
(PID.TID 0000.0001)     Wall clock time:   2.25018358230591
(PID.TID 0000.0001)          No. starts:        2160
(PID.TID 0000.0001)           No. stops:        2160
(PID.TID 0000.0001)   Seconds in section "INTEGR_CONTINUITY   [FORWARD_STEP]":
(PID.TID 0000.0001)           User time:   3.29949951171875
(PID.TID 0000.0001)         System time:  0.000000000000000E+000
(PID.TID 0000.0001)     Wall clock time:   3.31188631057739
(PID.TID 0000.0001)          No. starts:        2160
(PID.TID 0000.0001)           No. stops:        2160
(PID.TID 0000.0001)   Seconds in section "BLOCKING_EXCHANGES  [FORWARD_STEP]":
(PID.TID 0000.0001)           User time:   114.922149658203
(PID.TID 0000.0001)         System time:  0.000000000000000E+000
(PID.TID 0000.0001)     Wall clock time:   115.566610097885
(PID.TID 0000.0001)          No. starts:        4320
(PID.TID 0000.0001)           No. stops:        4320
(PID.TID 0000.0001)   Seconds in section "THERMODYNAMICS      [FORWARD_STEP]":
(PID.TID 0000.0001)           User time:   63.4967041015625
(PID.TID 0000.0001)         System time:  0.000000000000000E+000
(PID.TID 0000.0001)     Wall clock time:   71.8077900409698
(PID.TID 0000.0001)          No. starts:        2160
(PID.TID 0000.0001)           No. stops:        2160
(PID.TID 0000.0001)   Seconds in section "TRC_CORRECTION_STEP [FORWARD_STEP]":
(PID.TID 0000.0001)           User time:  1.669311523437500E-002
(PID.TID 0000.0001)         System time:  0.000000000000000E+000
(PID.TID 0000.0001)     Wall clock time:  1.501059532165527E-002
(PID.TID 0000.0001)          No. starts:        2160
(PID.TID 0000.0001)           No. stops:        2160
(PID.TID 0000.0001)   Seconds in section "MONITOR             [FORWARD_STEP]":
(PID.TID 0000.0001)           User time:   26.4373168945312
(PID.TID 0000.0001)         System time:  0.000000000000000E+000
(PID.TID 0000.0001)     Wall clock time:   42.6071665287018
(PID.TID 0000.0001)          No. starts:        2160
(PID.TID 0000.0001)           No. stops:        2160
(PID.TID 0000.0001)   Seconds in section "DO_THE_MODEL_IO     [FORWARD_STEP]":
(PID.TID 0000.0001)           User time:   946.899627685547
(PID.TID 0000.0001)         System time:  0.000000000000000E+000
(PID.TID 0000.0001)     Wall clock time:   1129.66045975685
(PID.TID 0000.0001)          No. starts:        2160
(PID.TID 0000.0001)           No. stops:        2160
(PID.TID 0000.0001)   Seconds in section "PTRACERS_RESET      [FORWARD_STEP]":
(PID.TID 0000.0001)           User time:  1.068115234375000E-002
(PID.TID 0000.0001)         System time:  0.000000000000000E+000
(PID.TID 0000.0001)     Wall clock time:  0.119759798049927
(PID.TID 0000.0001)          No. starts:        2160
(PID.TID 0000.0001)           No. stops:        2160
(PID.TID 0000.0001)   Seconds in section "DO_WRITE_PICKUP     [FORWARD_STEP]":
(PID.TID 0000.0001)           User time:   36.1488647460938
(PID.TID 0000.0001)         System time:  0.000000000000000E+000
(PID.TID 0000.0001)     Wall clock time:   57.8608648777008
(PID.TID 0000.0001)          No. starts:        2160
(PID.TID 0000.0001)           No. stops:        2160
(PID.TID 0000.0001) // ======================================================
(PID.TID 0000.0001) // Tile <-> Tile communication statistics
(PID.TID 0000.0001) // ======================================================
(PID.TID 0000.0001) // o Tile number: 000001
(PID.TID 0000.0001) //         No. X exchanges =              0
(PID.TID 0000.0001) //            Max. X spins =              0
(PID.TID 0000.0001) //            Min. X spins =     1000000000
(PID.TID 0000.0001) //          Total. X spins =              0
(PID.TID 0000.0001) //            Avg. X spins =       0.00E+00
(PID.TID 0000.0001) //         No. Y exchanges =              0
(PID.TID 0000.0001) //            Max. Y spins =              0
(PID.TID 0000.0001) //            Min. Y spins =     1000000000
(PID.TID 0000.0001) //          Total. Y spins =              0
(PID.TID 0000.0001) //            Avg. Y spins =       0.00E+00
(PID.TID 0000.0001) // o Thread number: 000001
(PID.TID 0000.0001) //            No. barriers =        4286484
(PID.TID 0000.0001) //      Max. barrier spins =              1
(PID.TID 0000.0001) //      Min. barrier spins =              1
(PID.TID 0000.0001) //     Total barrier spins =        4286484
(PID.TID 0000.0001) //      Avg. barrier spins =       1.00E+00
PROGRAM MAIN: Execution ended Normally
